*SPEF "IEEE 1481-1998"
*DESIGN "P4_ADDER"
*DATE "Thu Jun 15 19:11:32 2023"
*VENDOR "Cadence Design Systems, Inc."
*PROGRAM "Innovus"
*VERSION "20.11-s130_1"
*DESIGN_FLOW "COUPLING C" "PIN_CAP NONE" "NAME_SCOPE LOCAL"
*DIVIDER /
*DELIMITER :
*BUS_DELIMITER []
*T_UNIT 1 NS
*C_UNIT 1 PF
*R_UNIT 1 OHM
*L_UNIT 1 HENRY

// MMMC spef file for corner 'standard'

*NAME_MAP

*1 carry_net/FE_OFN0_n1
*2 A[31]
*3 A[30]
*4 A[29]
*5 A[28]
*6 A[27]
*7 A[26]
*8 A[25]
*9 A[24]
*10 A[23]
*11 A[22]
*12 A[21]
*13 A[20]
*14 A[19]
*15 A[18]
*16 A[17]
*17 A[16]
*18 A[15]
*19 A[14]
*20 A[13]
*21 A[12]
*22 A[11]
*23 A[10]
*24 A[9]
*25 A[8]
*26 A[7]
*27 A[6]
*28 A[5]
*29 A[4]
*30 A[3]
*31 A[2]
*32 A[1]
*33 A[0]
*34 B[31]
*35 B[30]
*36 B[29]
*37 B[28]
*38 B[27]
*39 B[26]
*40 B[25]
*41 B[24]
*42 B[23]
*43 B[22]
*44 B[21]
*45 B[20]
*46 B[19]
*47 B[18]
*48 B[17]
*49 B[16]
*50 B[15]
*51 B[14]
*52 B[13]
*53 B[12]
*54 B[11]
*55 B[10]
*56 B[9]
*57 B[8]
*58 B[7]
*59 B[6]
*60 B[5]
*61 B[4]
*62 B[3]
*63 B[2]
*64 B[1]
*65 B[0]
*66 Cin
*67 S[31]
*68 S[30]
*69 S[29]
*70 S[28]
*71 S[27]
*72 S[26]
*73 S[25]
*74 S[24]
*75 S[23]
*76 S[22]
*77 S[21]
*78 S[20]
*79 S[19]
*80 S[18]
*81 S[17]
*82 S[16]
*83 S[15]
*84 S[14]
*85 S[13]
*86 S[12]
*87 S[11]
*88 S[10]
*89 S[9]
*90 S[8]
*91 S[7]
*92 S[6]
*93 S[5]
*94 S[4]
*95 S[3]
*96 S[2]
*97 S[1]
*98 S[0]
*99 Cout
*100 cg_out[6]
*101 cg_out[5]
*102 cg_out[4]
*103 cg_out[3]
*104 cg_out[2]
*105 cg_out[1]
*106 cg_out[0]
*107 carry_net/pg_outputs\[1\]\[32\]
*108 carry_net/pg_outputs\[1\]\[31\]
*109 carry_net/pg_outputs\[1\]\[30\]
*110 carry_net/pg_outputs\[1\]\[29\]
*111 carry_net/pg_outputs\[1\]\[28\]
*112 carry_net/pg_outputs\[1\]\[27\]
*113 carry_net/pg_outputs\[1\]\[26\]
*114 carry_net/pg_outputs\[1\]\[25\]
*115 carry_net/pg_outputs\[1\]\[24\]
*116 carry_net/pg_outputs\[1\]\[23\]
*117 carry_net/pg_outputs\[1\]\[22\]
*118 carry_net/pg_outputs\[1\]\[21\]
*119 carry_net/pg_outputs\[1\]\[20\]
*120 carry_net/pg_outputs\[1\]\[19\]
*121 carry_net/pg_outputs\[1\]\[18\]
*122 carry_net/pg_outputs\[1\]\[17\]
*123 carry_net/pg_outputs\[1\]\[16\]
*124 carry_net/pg_outputs\[1\]\[15\]
*125 carry_net/pg_outputs\[1\]\[14\]
*126 carry_net/pg_outputs\[1\]\[13\]
*127 carry_net/pg_outputs\[1\]\[12\]
*128 carry_net/pg_outputs\[1\]\[11\]
*129 carry_net/pg_outputs\[1\]\[10\]
*130 carry_net/pg_outputs\[1\]\[9\]
*131 carry_net/pg_outputs\[1\]\[8\]
*132 carry_net/pg_outputs\[1\]\[7\]
*133 carry_net/pg_outputs\[1\]\[6\]
*134 carry_net/pg_outputs\[1\]\[5\]
*135 carry_net/pg_outputs\[1\]\[4\]
*136 carry_net/pg_outputs\[1\]\[3\]
*137 carry_net/pg_outputs\[1\]\[2\]
*138 carry_net/pg_outputs\[1\]\[1\]
*139 carry_net/pg_outputs\[0\]\[32\]
*140 carry_net/pg_outputs\[0\]\[31\]
*141 carry_net/pg_outputs\[0\]\[30\]
*142 carry_net/pg_outputs\[0\]\[29\]
*143 carry_net/pg_outputs\[0\]\[28\]
*144 carry_net/pg_outputs\[0\]\[27\]
*145 carry_net/pg_outputs\[0\]\[26\]
*146 carry_net/pg_outputs\[0\]\[25\]
*147 carry_net/pg_outputs\[0\]\[24\]
*148 carry_net/pg_outputs\[0\]\[23\]
*149 carry_net/pg_outputs\[0\]\[22\]
*150 carry_net/pg_outputs\[0\]\[21\]
*151 carry_net/pg_outputs\[0\]\[20\]
*152 carry_net/pg_outputs\[0\]\[19\]
*153 carry_net/pg_outputs\[0\]\[18\]
*154 carry_net/pg_outputs\[0\]\[17\]
*155 carry_net/pg_outputs\[0\]\[16\]
*156 carry_net/pg_outputs\[0\]\[15\]
*157 carry_net/pg_outputs\[0\]\[14\]
*158 carry_net/pg_outputs\[0\]\[13\]
*159 carry_net/pg_outputs\[0\]\[12\]
*160 carry_net/pg_outputs\[0\]\[11\]
*161 carry_net/pg_outputs\[0\]\[10\]
*162 carry_net/pg_outputs\[0\]\[9\]
*163 carry_net/pg_outputs\[0\]\[8\]
*164 carry_net/pg_outputs\[0\]\[7\]
*165 carry_net/pg_outputs\[0\]\[6\]
*166 carry_net/pg_outputs\[0\]\[5\]
*167 carry_net/pg_outputs\[0\]\[4\]
*168 carry_net/pg_outputs\[0\]\[3\]
*169 carry_net/pg_outputs\[0\]\[2\]
*170 carry_net/internal_g_outputs\[1\]\[16\]
*171 carry_net/internal_g_outputs\[1\]\[15\]
*172 carry_net/internal_g_outputs\[1\]\[14\]
*173 carry_net/internal_g_outputs\[1\]\[13\]
*174 carry_net/internal_g_outputs\[1\]\[12\]
*175 carry_net/internal_g_outputs\[1\]\[11\]
*176 carry_net/internal_g_outputs\[1\]\[10\]
*177 carry_net/internal_g_outputs\[1\]\[9\]
*178 carry_net/internal_g_outputs\[1\]\[8\]
*179 carry_net/internal_g_outputs\[1\]\[7\]
*180 carry_net/internal_g_outputs\[1\]\[6\]
*181 carry_net/internal_g_outputs\[1\]\[5\]
*182 carry_net/internal_g_outputs\[1\]\[4\]
*183 carry_net/internal_g_outputs\[1\]\[3\]
*184 carry_net/internal_g_outputs\[1\]\[2\]
*185 carry_net/internal_g_outputs\[1\]\[1\]
*186 carry_net/internal_g_outputs\[2\]\[16\]
*187 carry_net/internal_g_outputs\[2\]\[14\]
*188 carry_net/internal_g_outputs\[2\]\[12\]
*189 carry_net/internal_g_outputs\[2\]\[10\]
*190 carry_net/internal_g_outputs\[2\]\[8\]
*191 carry_net/internal_g_outputs\[2\]\[6\]
*192 carry_net/internal_g_outputs\[2\]\[4\]
*193 carry_net/internal_g_outputs\[3\]\[16\]
*194 carry_net/internal_g_outputs\[3\]\[12\]
*195 carry_net/internal_g_outputs\[3\]\[8\]
*196 carry_net/internal_g_outputs\[4\]\[16\]
*197 carry_net/internal_g_outputs\[4\]\[14\]
*198 carry_net/internal_p_outputs\[1\]\[16\]
*199 carry_net/internal_p_outputs\[1\]\[15\]
*200 carry_net/internal_p_outputs\[1\]\[14\]
*201 carry_net/internal_p_outputs\[1\]\[13\]
*202 carry_net/internal_p_outputs\[1\]\[12\]
*203 carry_net/internal_p_outputs\[1\]\[11\]
*204 carry_net/internal_p_outputs\[1\]\[10\]
*205 carry_net/internal_p_outputs\[1\]\[9\]
*206 carry_net/internal_p_outputs\[1\]\[8\]
*207 carry_net/internal_p_outputs\[1\]\[7\]
*208 carry_net/internal_p_outputs\[1\]\[6\]
*209 carry_net/internal_p_outputs\[1\]\[5\]
*210 carry_net/internal_p_outputs\[1\]\[4\]
*211 carry_net/internal_p_outputs\[1\]\[3\]
*212 carry_net/internal_p_outputs\[1\]\[2\]
*213 carry_net/internal_p_outputs\[2\]\[16\]
*214 carry_net/internal_p_outputs\[2\]\[14\]
*215 carry_net/internal_p_outputs\[2\]\[12\]
*216 carry_net/internal_p_outputs\[2\]\[10\]
*217 carry_net/internal_p_outputs\[2\]\[8\]
*218 carry_net/internal_p_outputs\[2\]\[6\]
*219 carry_net/internal_p_outputs\[2\]\[4\]
*220 carry_net/internal_p_outputs\[3\]\[16\]
*221 carry_net/internal_p_outputs\[3\]\[12\]
*222 carry_net/internal_p_outputs\[3\]\[8\]
*223 carry_net/internal_p_outputs\[4\]\[16\]
*224 carry_net/internal_p_outputs\[4\]\[14\]
*225 carry_net/SYNOPSYS_UNCONNECTED__0
*226 carry_net/pgn/n2
*227 carry_net/pgn/n3
*228 carry_net/pgn/n4
*229 carry_net/g1_1/n2
*230 carry_net/p1_2/n2
*231 carry_net/p1_3/n1
*232 carry_net/p1_3/n2
*233 carry_net/p1_4/n1
*234 carry_net/p1_4/n2
*235 carry_net/p1_4/n3
*236 carry_net/p1_5/n1
*237 carry_net/p1_6/n1
*238 carry_net/p1_7/n1
*239 carry_net/p1_8/n1
*240 carry_net/p1_8/n2
*241 carry_net/p1_9/n1
*242 carry_net/p1_10/n1
*243 carry_net/p1_11/n1
*244 carry_net/p1_12/n1
*245 carry_net/p1_13/n1
*246 carry_net/p1_14/n1
*247 carry_net/p1_15/n1
*248 carry_net/p1_16/n1
*249 carry_net/g2_1/n1
*250 carry_net/p2_2/n1
*251 carry_net/p2_3/n1
*252 carry_net/p2_4/n1
*253 carry_net/p2_5/n1
*254 carry_net/p2_6/n1
*255 carry_net/p2_7/n1
*256 carry_net/p2_8/n1
*257 carry_net/p_3_2/n2
*258 carry_net/p_3_2/n3
*259 carry_net/p_3_3/n1
*260 carry_net/p_3_4/n1
*261 carry_net/g_4_1/n1
*262 carry_net/g_4_1/n2
*263 carry_net/g_4_1/n3
*264 carry_net/g_4_2/n1
*265 carry_net/g_4_2/n2
*266 carry_net/g_4_2/n3
*267 carry_net/p_4_4/n1
*268 carry_net/g_5_1/n1
*269 carry_net/g_5_2/n1
*270 carry_net/g_5_3/n1
*271 carry_net/g_5_3/n2
*272 carry_net/g_5_4/n1
*273 sum_gen/cs_0/sum0[3]
*274 sum_gen/cs_0/sum0[2]
*275 sum_gen/cs_0/sum0[1]
*276 sum_gen/cs_0/sum0[0]
*277 sum_gen/cs_0/sum1[3]
*278 sum_gen/cs_0/sum1[2]
*279 sum_gen/cs_0/sum1[1]
*280 sum_gen/cs_0/sum1[0]
*281 sum_gen/cs_0/rca0/Co
*282 sum_gen/cs_0/rca0/CTMP[3]
*283 sum_gen/cs_0/rca0/CTMP[2]
*284 sum_gen/cs_0/rca0/CTMP[1]
*285 sum_gen/cs_0/rca0/FAI_1/n3
*286 sum_gen/cs_0/rca0/FAI_2/n1
*287 sum_gen/cs_0/rca0/FAI_2/n3
*288 sum_gen/cs_0/rca0/FAI_3/n1
*289 sum_gen/cs_0/rca0/FAI_3/n3
*290 sum_gen/cs_0/rca0/FAI_4/n1
*291 sum_gen/cs_0/rca0/FAI_4/n3
*292 sum_gen/cs_0/rca1/Co
*293 sum_gen/cs_0/rca1/CTMP[3]
*294 sum_gen/cs_0/rca1/CTMP[2]
*295 sum_gen/cs_0/rca1/CTMP[1]
*296 sum_gen/cs_0/rca1/FAI_1/n1
*297 sum_gen/cs_0/rca1/FAI_1/n3
*298 sum_gen/cs_0/rca1/FAI_2/n1
*299 sum_gen/cs_0/rca1/FAI_2/n3
*300 sum_gen/cs_0/rca1/FAI_3/n1
*301 sum_gen/cs_0/rca1/FAI_3/n3
*302 sum_gen/cs_0/rca1/FAI_4/n1
*303 sum_gen/cs_0/rca1/FAI_4/n3
*304 sum_gen/cs_0/mux0/SB
*305 sum_gen/cs_0/mux0/Y1[3]
*306 sum_gen/cs_0/mux0/Y1[2]
*307 sum_gen/cs_0/mux0/Y1[1]
*308 sum_gen/cs_0/mux0/Y1[0]
*309 sum_gen/cs_0/mux0/Y2[3]
*310 sum_gen/cs_0/mux0/Y2[2]
*311 sum_gen/cs_0/mux0/Y2[1]
*312 sum_gen/cs_0/mux0/Y2[0]
*313 sum_gen/cs_1/sum0[3]
*314 sum_gen/cs_1/sum0[2]
*315 sum_gen/cs_1/sum0[1]
*316 sum_gen/cs_1/sum0[0]
*317 sum_gen/cs_1/sum1[3]
*318 sum_gen/cs_1/sum1[2]
*319 sum_gen/cs_1/sum1[1]
*320 sum_gen/cs_1/sum1[0]
*321 sum_gen/cs_1/rca0/Co
*322 sum_gen/cs_1/rca0/CTMP[3]
*323 sum_gen/cs_1/rca0/CTMP[2]
*324 sum_gen/cs_1/rca0/CTMP[1]
*325 sum_gen/cs_1/rca0/FAI_1/n1
*326 sum_gen/cs_1/rca0/FAI_2/n1
*327 sum_gen/cs_1/rca0/FAI_2/n3
*328 sum_gen/cs_1/rca0/FAI_3/n1
*329 sum_gen/cs_1/rca0/FAI_3/n3
*330 sum_gen/cs_1/rca0/FAI_4/n1
*331 sum_gen/cs_1/rca0/FAI_4/n3
*332 sum_gen/cs_1/rca1/Co
*333 sum_gen/cs_1/rca1/CTMP[3]
*334 sum_gen/cs_1/rca1/CTMP[2]
*335 sum_gen/cs_1/rca1/CTMP[1]
*336 sum_gen/cs_1/rca1/FAI_1/n1
*337 sum_gen/cs_1/rca1/FAI_1/n3
*338 sum_gen/cs_1/rca1/FAI_2/n1
*339 sum_gen/cs_1/rca1/FAI_2/n3
*340 sum_gen/cs_1/rca1/FAI_3/n1
*341 sum_gen/cs_1/rca1/FAI_3/n3
*342 sum_gen/cs_1/rca1/FAI_4/n1
*343 sum_gen/cs_1/rca1/FAI_4/n3
*344 sum_gen/cs_1/mux0/SB
*345 sum_gen/cs_1/mux0/Y1[3]
*346 sum_gen/cs_1/mux0/Y1[2]
*347 sum_gen/cs_1/mux0/Y1[1]
*348 sum_gen/cs_1/mux0/Y1[0]
*349 sum_gen/cs_1/mux0/Y2[3]
*350 sum_gen/cs_1/mux0/Y2[2]
*351 sum_gen/cs_1/mux0/Y2[1]
*352 sum_gen/cs_1/mux0/Y2[0]
*353 sum_gen/cs_2/sum0[3]
*354 sum_gen/cs_2/sum0[2]
*355 sum_gen/cs_2/sum0[1]
*356 sum_gen/cs_2/sum0[0]
*357 sum_gen/cs_2/sum1[3]
*358 sum_gen/cs_2/sum1[2]
*359 sum_gen/cs_2/sum1[1]
*360 sum_gen/cs_2/sum1[0]
*361 sum_gen/cs_2/rca0/Co
*362 sum_gen/cs_2/rca0/CTMP[3]
*363 sum_gen/cs_2/rca0/CTMP[2]
*364 sum_gen/cs_2/rca0/CTMP[1]
*365 sum_gen/cs_2/rca0/FAI_1/n1
*366 sum_gen/cs_2/rca0/FAI_2/n1
*367 sum_gen/cs_2/rca0/FAI_2/n3
*368 sum_gen/cs_2/rca0/FAI_3/n1
*369 sum_gen/cs_2/rca0/FAI_3/n3
*370 sum_gen/cs_2/rca0/FAI_4/n1
*371 sum_gen/cs_2/rca0/FAI_4/n3
*372 sum_gen/cs_2/rca1/Co
*373 sum_gen/cs_2/rca1/CTMP[3]
*374 sum_gen/cs_2/rca1/CTMP[2]
*375 sum_gen/cs_2/rca1/CTMP[1]
*376 sum_gen/cs_2/rca1/FAI_1/n1
*377 sum_gen/cs_2/rca1/FAI_1/n3
*378 sum_gen/cs_2/rca1/FAI_2/n1
*379 sum_gen/cs_2/rca1/FAI_2/n3
*380 sum_gen/cs_2/rca1/FAI_3/n1
*381 sum_gen/cs_2/rca1/FAI_3/n3
*382 sum_gen/cs_2/rca1/FAI_4/n1
*383 sum_gen/cs_2/rca1/FAI_4/n3
*384 sum_gen/cs_2/mux0/SB
*385 sum_gen/cs_2/mux0/Y1[3]
*386 sum_gen/cs_2/mux0/Y1[2]
*387 sum_gen/cs_2/mux0/Y1[1]
*388 sum_gen/cs_2/mux0/Y1[0]
*389 sum_gen/cs_2/mux0/Y2[3]
*390 sum_gen/cs_2/mux0/Y2[2]
*391 sum_gen/cs_2/mux0/Y2[1]
*392 sum_gen/cs_2/mux0/Y2[0]
*393 sum_gen/cs_3/sum0[3]
*394 sum_gen/cs_3/sum0[2]
*395 sum_gen/cs_3/sum0[1]
*396 sum_gen/cs_3/sum0[0]
*397 sum_gen/cs_3/sum1[3]
*398 sum_gen/cs_3/sum1[2]
*399 sum_gen/cs_3/sum1[1]
*400 sum_gen/cs_3/sum1[0]
*401 sum_gen/cs_3/rca0/Co
*402 sum_gen/cs_3/rca0/CTMP[3]
*403 sum_gen/cs_3/rca0/CTMP[2]
*404 sum_gen/cs_3/rca0/CTMP[1]
*405 sum_gen/cs_3/rca0/FAI_1/n1
*406 sum_gen/cs_3/rca0/FAI_2/n1
*407 sum_gen/cs_3/rca0/FAI_2/n3
*408 sum_gen/cs_3/rca0/FAI_3/n1
*409 sum_gen/cs_3/rca0/FAI_3/n3
*410 sum_gen/cs_3/rca0/FAI_4/n1
*411 sum_gen/cs_3/rca0/FAI_4/n3
*412 sum_gen/cs_3/rca1/Co
*413 sum_gen/cs_3/rca1/CTMP[3]
*414 sum_gen/cs_3/rca1/CTMP[2]
*415 sum_gen/cs_3/rca1/CTMP[1]
*416 sum_gen/cs_3/rca1/FAI_1/n1
*417 sum_gen/cs_3/rca1/FAI_1/n3
*418 sum_gen/cs_3/rca1/FAI_2/n1
*419 sum_gen/cs_3/rca1/FAI_2/n3
*420 sum_gen/cs_3/rca1/FAI_3/n1
*421 sum_gen/cs_3/rca1/FAI_3/n3
*422 sum_gen/cs_3/rca1/FAI_4/n1
*423 sum_gen/cs_3/rca1/FAI_4/n3
*424 sum_gen/cs_3/mux0/SB
*425 sum_gen/cs_3/mux0/Y1[3]
*426 sum_gen/cs_3/mux0/Y1[2]
*427 sum_gen/cs_3/mux0/Y1[1]
*428 sum_gen/cs_3/mux0/Y1[0]
*429 sum_gen/cs_3/mux0/Y2[3]
*430 sum_gen/cs_3/mux0/Y2[2]
*431 sum_gen/cs_3/mux0/Y2[1]
*432 sum_gen/cs_3/mux0/Y2[0]
*433 sum_gen/cs_4/sum0[3]
*434 sum_gen/cs_4/sum0[2]
*435 sum_gen/cs_4/sum0[1]
*436 sum_gen/cs_4/sum0[0]
*437 sum_gen/cs_4/sum1[3]
*438 sum_gen/cs_4/sum1[2]
*439 sum_gen/cs_4/sum1[1]
*440 sum_gen/cs_4/sum1[0]
*441 sum_gen/cs_4/rca0/Co
*442 sum_gen/cs_4/rca0/CTMP[3]
*443 sum_gen/cs_4/rca0/CTMP[2]
*444 sum_gen/cs_4/rca0/CTMP[1]
*445 sum_gen/cs_4/rca0/FAI_1/n1
*446 sum_gen/cs_4/rca0/FAI_2/n1
*447 sum_gen/cs_4/rca0/FAI_2/n3
*448 sum_gen/cs_4/rca0/FAI_3/n1
*449 sum_gen/cs_4/rca0/FAI_3/n3
*450 sum_gen/cs_4/rca0/FAI_4/n1
*451 sum_gen/cs_4/rca0/FAI_4/n3
*452 sum_gen/cs_4/rca1/Co
*453 sum_gen/cs_4/rca1/CTMP[3]
*454 sum_gen/cs_4/rca1/CTMP[2]
*455 sum_gen/cs_4/rca1/CTMP[1]
*456 sum_gen/cs_4/rca1/FAI_1/n1
*457 sum_gen/cs_4/rca1/FAI_1/n3
*458 sum_gen/cs_4/rca1/FAI_2/n1
*459 sum_gen/cs_4/rca1/FAI_2/n3
*460 sum_gen/cs_4/rca1/FAI_3/n1
*461 sum_gen/cs_4/rca1/FAI_3/n3
*462 sum_gen/cs_4/rca1/FAI_4/n1
*463 sum_gen/cs_4/rca1/FAI_4/n3
*464 sum_gen/cs_4/mux0/SB
*465 sum_gen/cs_4/mux0/Y1[3]
*466 sum_gen/cs_4/mux0/Y1[2]
*467 sum_gen/cs_4/mux0/Y1[1]
*468 sum_gen/cs_4/mux0/Y1[0]
*469 sum_gen/cs_4/mux0/Y2[3]
*470 sum_gen/cs_4/mux0/Y2[2]
*471 sum_gen/cs_4/mux0/Y2[1]
*472 sum_gen/cs_4/mux0/Y2[0]
*473 sum_gen/cs_5/sum0[3]
*474 sum_gen/cs_5/sum0[2]
*475 sum_gen/cs_5/sum0[1]
*476 sum_gen/cs_5/sum0[0]
*477 sum_gen/cs_5/sum1[3]
*478 sum_gen/cs_5/sum1[2]
*479 sum_gen/cs_5/sum1[1]
*480 sum_gen/cs_5/sum1[0]
*481 sum_gen/cs_5/rca0/Co
*482 sum_gen/cs_5/rca0/CTMP[3]
*483 sum_gen/cs_5/rca0/CTMP[2]
*484 sum_gen/cs_5/rca0/CTMP[1]
*485 sum_gen/cs_5/rca0/FAI_1/n1
*486 sum_gen/cs_5/rca0/FAI_1/n3
*487 sum_gen/cs_5/rca0/FAI_2/n1
*488 sum_gen/cs_5/rca0/FAI_2/n3
*489 sum_gen/cs_5/rca0/FAI_3/n1
*490 sum_gen/cs_5/rca0/FAI_3/n3
*491 sum_gen/cs_5/rca0/FAI_4/n1
*492 sum_gen/cs_5/rca0/FAI_4/n3
*493 sum_gen/cs_5/rca1/Co
*494 sum_gen/cs_5/rca1/CTMP[3]
*495 sum_gen/cs_5/rca1/CTMP[2]
*496 sum_gen/cs_5/rca1/CTMP[1]
*497 sum_gen/cs_5/rca1/FAI_1/n1
*498 sum_gen/cs_5/rca1/FAI_1/n3
*499 sum_gen/cs_5/rca1/FAI_2/n1
*500 sum_gen/cs_5/rca1/FAI_2/n3
*501 sum_gen/cs_5/rca1/FAI_3/n1
*502 sum_gen/cs_5/rca1/FAI_3/n3
*503 sum_gen/cs_5/rca1/FAI_4/n1
*504 sum_gen/cs_5/rca1/FAI_4/n3
*505 sum_gen/cs_5/mux0/SB
*506 sum_gen/cs_5/mux0/Y1[3]
*507 sum_gen/cs_5/mux0/Y1[2]
*508 sum_gen/cs_5/mux0/Y1[1]
*509 sum_gen/cs_5/mux0/Y1[0]
*510 sum_gen/cs_5/mux0/Y2[3]
*511 sum_gen/cs_5/mux0/Y2[2]
*512 sum_gen/cs_5/mux0/Y2[1]
*513 sum_gen/cs_5/mux0/Y2[0]
*514 sum_gen/cs_6/sum0[3]
*515 sum_gen/cs_6/sum0[2]
*516 sum_gen/cs_6/sum0[1]
*517 sum_gen/cs_6/sum0[0]
*518 sum_gen/cs_6/sum1[3]
*519 sum_gen/cs_6/sum1[2]
*520 sum_gen/cs_6/sum1[1]
*521 sum_gen/cs_6/sum1[0]
*522 sum_gen/cs_6/rca0/Co
*523 sum_gen/cs_6/rca0/CTMP[3]
*524 sum_gen/cs_6/rca0/CTMP[2]
*525 sum_gen/cs_6/rca0/CTMP[1]
*526 sum_gen/cs_6/rca0/FAI_1/n1
*527 sum_gen/cs_6/rca0/FAI_1/n3
*528 sum_gen/cs_6/rca0/FAI_2/n1
*529 sum_gen/cs_6/rca0/FAI_2/n3
*530 sum_gen/cs_6/rca0/FAI_3/n1
*531 sum_gen/cs_6/rca0/FAI_3/n3
*532 sum_gen/cs_6/rca0/FAI_4/n1
*533 sum_gen/cs_6/rca0/FAI_4/n3
*534 sum_gen/cs_6/rca1/Co
*535 sum_gen/cs_6/rca1/CTMP[3]
*536 sum_gen/cs_6/rca1/CTMP[2]
*537 sum_gen/cs_6/rca1/CTMP[1]
*538 sum_gen/cs_6/rca1/FAI_1/n1
*539 sum_gen/cs_6/rca1/FAI_1/n3
*540 sum_gen/cs_6/rca1/FAI_2/n1
*541 sum_gen/cs_6/rca1/FAI_2/n3
*542 sum_gen/cs_6/rca1/FAI_3/n1
*543 sum_gen/cs_6/rca1/FAI_3/n3
*544 sum_gen/cs_6/rca1/FAI_4/n1
*545 sum_gen/cs_6/rca1/FAI_4/n3
*546 sum_gen/cs_6/mux0/SB
*547 sum_gen/cs_6/mux0/Y1[3]
*548 sum_gen/cs_6/mux0/Y1[2]
*549 sum_gen/cs_6/mux0/Y1[1]
*550 sum_gen/cs_6/mux0/Y1[0]
*551 sum_gen/cs_6/mux0/Y2[3]
*552 sum_gen/cs_6/mux0/Y2[2]
*553 sum_gen/cs_6/mux0/Y2[1]
*554 sum_gen/cs_6/mux0/Y2[0]
*555 sum_gen/cs_7/sum0[3]
*556 sum_gen/cs_7/sum0[2]
*557 sum_gen/cs_7/sum0[1]
*558 sum_gen/cs_7/sum0[0]
*559 sum_gen/cs_7/sum1[3]
*560 sum_gen/cs_7/sum1[2]
*561 sum_gen/cs_7/sum1[1]
*562 sum_gen/cs_7/sum1[0]
*563 sum_gen/cs_7/rca0/Co
*564 sum_gen/cs_7/rca0/CTMP[3]
*565 sum_gen/cs_7/rca0/CTMP[2]
*566 sum_gen/cs_7/rca0/CTMP[1]
*567 sum_gen/cs_7/rca0/FAI_1/n1
*568 sum_gen/cs_7/rca0/FAI_1/n3
*569 sum_gen/cs_7/rca0/FAI_2/n1
*570 sum_gen/cs_7/rca0/FAI_2/n3
*571 sum_gen/cs_7/rca0/FAI_3/n1
*572 sum_gen/cs_7/rca0/FAI_3/n3
*573 sum_gen/cs_7/rca0/FAI_4/n1
*574 sum_gen/cs_7/rca0/FAI_4/n3
*575 sum_gen/cs_7/rca1/Co
*576 sum_gen/cs_7/rca1/CTMP[3]
*577 sum_gen/cs_7/rca1/CTMP[2]
*578 sum_gen/cs_7/rca1/CTMP[1]
*579 sum_gen/cs_7/rca1/FAI_1/n1
*580 sum_gen/cs_7/rca1/FAI_1/n3
*581 sum_gen/cs_7/rca1/FAI_2/n1
*582 sum_gen/cs_7/rca1/FAI_2/n3
*583 sum_gen/cs_7/rca1/FAI_3/n1
*584 sum_gen/cs_7/rca1/FAI_3/n3
*585 sum_gen/cs_7/rca1/FAI_4/n1
*586 sum_gen/cs_7/rca1/FAI_4/n3
*587 sum_gen/cs_7/mux0/SB
*588 sum_gen/cs_7/mux0/Y1[3]
*589 sum_gen/cs_7/mux0/Y1[2]
*590 sum_gen/cs_7/mux0/Y1[1]
*591 sum_gen/cs_7/mux0/Y1[0]
*592 sum_gen/cs_7/mux0/Y2[3]
*593 sum_gen/cs_7/mux0/Y2[2]
*594 sum_gen/cs_7/mux0/Y2[1]
*595 sum_gen/cs_7/mux0/Y2[0]
*596 carry_net/FE_OFC3_n1
*597 carry_net/pgn/U37
*598 carry_net/pgn/U38
*599 carry_net/pgn/U39
*600 carry_net/pgn/U40
*601 carry_net/pgn/U41
*602 carry_net/pgn/U42
*603 carry_net/pgn/U43
*604 carry_net/pgn/U44
*605 carry_net/pgn/U45
*606 carry_net/pgn/U46
*607 carry_net/pgn/U47
*608 carry_net/pgn/U48
*609 carry_net/pgn/U49
*610 carry_net/pgn/U50
*611 carry_net/pgn/U51
*612 carry_net/pgn/U52
*613 carry_net/pgn/U53
*614 carry_net/pgn/U54
*615 carry_net/pgn/U55
*616 carry_net/pgn/U56
*617 carry_net/pgn/U57
*618 carry_net/pgn/U58
*619 carry_net/pgn/U59
*620 carry_net/pgn/U60
*621 carry_net/pgn/U62
*622 carry_net/pgn/U63
*623 carry_net/pgn/U64
*624 carry_net/pgn/U65
*625 carry_net/pgn/U66
*626 carry_net/pgn/U67
*627 carry_net/pgn/U61
*628 carry_net/pgn/U1
*629 carry_net/pgn/U2
*630 carry_net/pgn/U3
*631 carry_net/pgn/U4
*632 carry_net/pgn/U5
*633 carry_net/pgn/U6
*634 carry_net/pgn/U7
*635 carry_net/pgn/U8
*636 carry_net/pgn/U9
*637 carry_net/pgn/U10
*638 carry_net/pgn/U11
*639 carry_net/pgn/U12
*640 carry_net/pgn/U13
*641 carry_net/pgn/U14
*642 carry_net/pgn/U15
*643 carry_net/pgn/U16
*644 carry_net/pgn/U17
*645 carry_net/pgn/U18
*646 carry_net/pgn/U19
*647 carry_net/pgn/U20
*648 carry_net/pgn/U21
*649 carry_net/pgn/U22
*650 carry_net/pgn/U23
*651 carry_net/pgn/U24
*652 carry_net/pgn/U25
*653 carry_net/pgn/U26
*654 carry_net/pgn/U27
*655 carry_net/pgn/U28
*656 carry_net/pgn/U29
*657 carry_net/pgn/U30
*658 carry_net/pgn/U31
*659 carry_net/pgn/U32
*660 carry_net/pgn/U33
*661 carry_net/pgn/U34
*662 carry_net/pgn/U35
*663 carry_net/pgn/U36
*664 carry_net/g1_1/U1
*665 carry_net/g1_1/U2
*666 carry_net/p1_2/U1
*667 carry_net/p1_2/U2
*668 carry_net/p1_2/U3
*669 carry_net/p1_3/U1
*670 carry_net/p1_3/U2
*671 carry_net/p1_3/U3
*672 carry_net/p1_3/U4
*673 carry_net/p1_4/U1
*674 carry_net/p1_4/U2
*675 carry_net/p1_4/U3
*676 carry_net/p1_4/U4
*677 carry_net/p1_4/U5
*678 carry_net/p1_5/U1
*679 carry_net/p1_5/U2
*680 carry_net/p1_5/U3
*681 carry_net/p1_6/U1
*682 carry_net/p1_6/U2
*683 carry_net/p1_6/U3
*684 carry_net/p1_7/U1
*685 carry_net/p1_7/U2
*686 carry_net/p1_7/U3
*687 carry_net/p1_8/U1
*688 carry_net/p1_8/U2
*689 carry_net/p1_8/U3
*690 carry_net/p1_8/U4
*691 carry_net/p1_9/U1
*692 carry_net/p1_9/U2
*693 carry_net/p1_9/U3
*694 carry_net/p1_10/U1
*695 carry_net/p1_10/U2
*696 carry_net/p1_10/U3
*697 carry_net/p1_11/U1
*698 carry_net/p1_11/U2
*699 carry_net/p1_11/U3
*700 carry_net/p1_12/U1
*701 carry_net/p1_12/U2
*702 carry_net/p1_12/U3
*703 carry_net/p1_13/U1
*704 carry_net/p1_13/U2
*705 carry_net/p1_13/U3
*706 carry_net/p1_14/U1
*707 carry_net/p1_14/U2
*708 carry_net/p1_14/U3
*709 carry_net/p1_15/U1
*710 carry_net/p1_15/U2
*711 carry_net/p1_15/U3
*712 carry_net/p1_16/U1
*713 carry_net/p1_16/U2
*714 carry_net/p1_16/U3
*715 carry_net/g2_1/U1
*716 carry_net/g2_1/U2
*717 carry_net/p2_2/U1
*718 carry_net/p2_2/U2
*719 carry_net/p2_2/U3
*720 carry_net/p2_3/U1
*721 carry_net/p2_3/U2
*722 carry_net/p2_3/U3
*723 carry_net/p2_4/U1
*724 carry_net/p2_4/U2
*725 carry_net/p2_4/U3
*726 carry_net/p2_5/U1
*727 carry_net/p2_5/U2
*728 carry_net/p2_5/U3
*729 carry_net/p2_6/U1
*730 carry_net/p2_6/U2
*731 carry_net/p2_6/U3
*732 carry_net/p2_7/U1
*733 carry_net/p2_7/U2
*734 carry_net/p2_7/U3
*735 carry_net/p2_8/U1
*736 carry_net/p2_8/U2
*737 carry_net/p2_8/U3
*738 carry_net/g_3_1/U2
*739 carry_net/p_3_2/U1
*740 carry_net/p_3_2/U2
*741 carry_net/p_3_2/U3
*742 carry_net/p_3_2/U4
*743 carry_net/p_3_3/U1
*744 carry_net/p_3_3/U2
*745 carry_net/p_3_3/U3
*746 carry_net/p_3_4/U1
*747 carry_net/p_3_4/U2
*748 carry_net/p_3_4/U3
*749 carry_net/g_4_1/U1
*750 carry_net/g_4_1/U2
*751 carry_net/g_4_1/U3
*752 carry_net/g_4_1/U4
*753 carry_net/g_4_2/FE_OFC4_n1
*754 carry_net/g_4_2/U1
*755 carry_net/g_4_2/U3
*756 carry_net/g_4_2/U4
*757 carry_net/p_4_3/U1
*758 carry_net/p_4_3/U2
*759 carry_net/p_4_4/U1
*760 carry_net/p_4_4/U2
*761 carry_net/p_4_4/U3
*762 carry_net/g_5_1/U1
*763 carry_net/g_5_1/U2
*764 carry_net/g_5_2/U1
*765 carry_net/g_5_2/U2
*766 carry_net/g_5_3/FE_OFC1_cg_out_3
*767 carry_net/g_5_3/U1
*768 carry_net/g_5_3/U2
*769 carry_net/g_5_4/U1
*770 carry_net/g_5_4/U2
*771 sum_gen/cs_0/rca0/FAI_1/FE_RC_0_0
*772 sum_gen/cs_0/rca0/FAI_1/U4
*773 sum_gen/cs_0/rca0/FAI_1/U1
*774 sum_gen/cs_0/rca0/FAI_2/U3
*775 sum_gen/cs_0/rca0/FAI_2/U4
*776 sum_gen/cs_0/rca0/FAI_2/U1
*777 sum_gen/cs_0/rca0/FAI_2/U2
*778 sum_gen/cs_0/rca0/FAI_3/U3
*779 sum_gen/cs_0/rca0/FAI_3/U4
*780 sum_gen/cs_0/rca0/FAI_3/U1
*781 sum_gen/cs_0/rca0/FAI_3/U2
*782 sum_gen/cs_0/rca0/FAI_4/U3
*783 sum_gen/cs_0/rca0/FAI_4/U4
*784 sum_gen/cs_0/rca0/FAI_4/U1
*785 sum_gen/cs_0/rca0/FAI_4/U2
*786 sum_gen/cs_0/rca1/FAI_1/FE_RC_15_0
*787 sum_gen/cs_0/rca1/FAI_1/U3
*788 sum_gen/cs_0/rca1/FAI_1/U4
*789 sum_gen/cs_0/rca1/FAI_1/U1
*790 sum_gen/cs_0/rca1/FAI_2/U3
*791 sum_gen/cs_0/rca1/FAI_2/U4
*792 sum_gen/cs_0/rca1/FAI_2/U1
*793 sum_gen/cs_0/rca1/FAI_2/U2
*794 sum_gen/cs_0/rca1/FAI_3/U3
*795 sum_gen/cs_0/rca1/FAI_3/U4
*796 sum_gen/cs_0/rca1/FAI_3/U1
*797 sum_gen/cs_0/rca1/FAI_3/U2
*798 sum_gen/cs_0/rca1/FAI_4/U3
*799 sum_gen/cs_0/rca1/FAI_4/U4
*800 sum_gen/cs_0/rca1/FAI_4/U1
*801 sum_gen/cs_0/rca1/FAI_4/U2
*802 sum_gen/cs_0/mux0/UIV/U1
*803 sum_gen/cs_0/mux0/UND1_0/U1
*804 sum_gen/cs_0/mux0/UND2_0/U1
*805 sum_gen/cs_0/mux0/UND3_0/U1
*806 sum_gen/cs_0/mux0/UND1_1/U1
*807 sum_gen/cs_0/mux0/UND2_1/U1
*808 sum_gen/cs_0/mux0/UND3_1/U1
*809 sum_gen/cs_0/mux0/UND1_2/U1
*810 sum_gen/cs_0/mux0/UND2_2/U1
*811 sum_gen/cs_0/mux0/UND3_2/U1
*812 sum_gen/cs_0/mux0/UND1_3/U1
*813 sum_gen/cs_0/mux0/UND2_3/U1
*814 sum_gen/cs_0/mux0/UND3_3/U1
*815 sum_gen/cs_1/rca0/FAI_1/FE_RC_1_0
*816 sum_gen/cs_1/rca0/FAI_1/U4
*817 sum_gen/cs_1/rca0/FAI_1/U1
*818 sum_gen/cs_1/rca0/FAI_2/U3
*819 sum_gen/cs_1/rca0/FAI_2/U4
*820 sum_gen/cs_1/rca0/FAI_2/U1
*821 sum_gen/cs_1/rca0/FAI_2/U2
*822 sum_gen/cs_1/rca0/FAI_3/U3
*823 sum_gen/cs_1/rca0/FAI_3/U4
*824 sum_gen/cs_1/rca0/FAI_3/U1
*825 sum_gen/cs_1/rca0/FAI_3/U2
*826 sum_gen/cs_1/rca0/FAI_4/U3
*827 sum_gen/cs_1/rca0/FAI_4/U4
*828 sum_gen/cs_1/rca0/FAI_4/U1
*829 sum_gen/cs_1/rca0/FAI_4/U2
*830 sum_gen/cs_1/rca1/FAI_1/FE_RC_16_0
*831 sum_gen/cs_1/rca1/FAI_1/U3
*832 sum_gen/cs_1/rca1/FAI_1/U4
*833 sum_gen/cs_1/rca1/FAI_1/U1
*834 sum_gen/cs_1/rca1/FAI_2/U3
*835 sum_gen/cs_1/rca1/FAI_2/U4
*836 sum_gen/cs_1/rca1/FAI_2/U1
*837 sum_gen/cs_1/rca1/FAI_2/U2
*838 sum_gen/cs_1/rca1/FAI_3/U3
*839 sum_gen/cs_1/rca1/FAI_3/U4
*840 sum_gen/cs_1/rca1/FAI_3/U1
*841 sum_gen/cs_1/rca1/FAI_3/U2
*842 sum_gen/cs_1/rca1/FAI_4/U3
*843 sum_gen/cs_1/rca1/FAI_4/U4
*844 sum_gen/cs_1/rca1/FAI_4/U1
*845 sum_gen/cs_1/rca1/FAI_4/U2
*846 sum_gen/cs_1/mux0/UIV/U1
*847 sum_gen/cs_1/mux0/UND1_0/U1
*848 sum_gen/cs_1/mux0/UND2_0/U1
*849 sum_gen/cs_1/mux0/UND3_0/U1
*850 sum_gen/cs_1/mux0/UND1_1/U1
*851 sum_gen/cs_1/mux0/UND2_1/U1
*852 sum_gen/cs_1/mux0/UND3_1/U1
*853 sum_gen/cs_1/mux0/UND1_2/U1
*854 sum_gen/cs_1/mux0/UND2_2/U1
*855 sum_gen/cs_1/mux0/UND3_2/U1
*856 sum_gen/cs_1/mux0/UND1_3/U1
*857 sum_gen/cs_1/mux0/UND2_3/U1
*858 sum_gen/cs_1/mux0/UND3_3/U1
*859 sum_gen/cs_2/rca0/FAI_1/FE_RC_2_0
*860 sum_gen/cs_2/rca0/FAI_1/U4
*861 sum_gen/cs_2/rca0/FAI_1/U1
*862 sum_gen/cs_2/rca0/FAI_2/U3
*863 sum_gen/cs_2/rca0/FAI_2/U4
*864 sum_gen/cs_2/rca0/FAI_2/U1
*865 sum_gen/cs_2/rca0/FAI_2/U2
*866 sum_gen/cs_2/rca0/FAI_3/U3
*867 sum_gen/cs_2/rca0/FAI_3/U4
*868 sum_gen/cs_2/rca0/FAI_3/U1
*869 sum_gen/cs_2/rca0/FAI_3/U2
*870 sum_gen/cs_2/rca0/FAI_4/U3
*871 sum_gen/cs_2/rca0/FAI_4/U4
*872 sum_gen/cs_2/rca0/FAI_4/U1
*873 sum_gen/cs_2/rca0/FAI_4/U2
*874 sum_gen/cs_2/rca1/FAI_1/FE_RC_17_0
*875 sum_gen/cs_2/rca1/FAI_1/U3
*876 sum_gen/cs_2/rca1/FAI_1/U4
*877 sum_gen/cs_2/rca1/FAI_1/U1
*878 sum_gen/cs_2/rca1/FAI_2/U3
*879 sum_gen/cs_2/rca1/FAI_2/U4
*880 sum_gen/cs_2/rca1/FAI_2/U1
*881 sum_gen/cs_2/rca1/FAI_2/U2
*882 sum_gen/cs_2/rca1/FAI_3/U3
*883 sum_gen/cs_2/rca1/FAI_3/U4
*884 sum_gen/cs_2/rca1/FAI_3/U1
*885 sum_gen/cs_2/rca1/FAI_3/U2
*886 sum_gen/cs_2/rca1/FAI_4/U3
*887 sum_gen/cs_2/rca1/FAI_4/U4
*888 sum_gen/cs_2/rca1/FAI_4/U1
*889 sum_gen/cs_2/rca1/FAI_4/U2
*890 sum_gen/cs_2/mux0/UIV/U1
*891 sum_gen/cs_2/mux0/UND1_0/U1
*892 sum_gen/cs_2/mux0/UND2_0/U1
*893 sum_gen/cs_2/mux0/UND3_0/U1
*894 sum_gen/cs_2/mux0/UND1_1/U1
*895 sum_gen/cs_2/mux0/UND2_1/U1
*896 sum_gen/cs_2/mux0/UND3_1/U1
*897 sum_gen/cs_2/mux0/UND1_2/U1
*898 sum_gen/cs_2/mux0/UND2_2/U1
*899 sum_gen/cs_2/mux0/UND3_2/U1
*900 sum_gen/cs_2/mux0/UND1_3/U1
*901 sum_gen/cs_2/mux0/UND2_3/U1
*902 sum_gen/cs_2/mux0/UND3_3/U1
*903 sum_gen/cs_3/rca0/FAI_1/FE_RC_3_0
*904 sum_gen/cs_3/rca0/FAI_1/U4
*905 sum_gen/cs_3/rca0/FAI_1/U1
*906 sum_gen/cs_3/rca0/FAI_2/U3
*907 sum_gen/cs_3/rca0/FAI_2/U4
*908 sum_gen/cs_3/rca0/FAI_2/U1
*909 sum_gen/cs_3/rca0/FAI_2/U2
*910 sum_gen/cs_3/rca0/FAI_3/U3
*911 sum_gen/cs_3/rca0/FAI_3/U4
*912 sum_gen/cs_3/rca0/FAI_3/U1
*913 sum_gen/cs_3/rca0/FAI_3/U2
*914 sum_gen/cs_3/rca0/FAI_4/U3
*915 sum_gen/cs_3/rca0/FAI_4/U4
*916 sum_gen/cs_3/rca0/FAI_4/U1
*917 sum_gen/cs_3/rca0/FAI_4/U2
*918 sum_gen/cs_3/rca1/FAI_1/FE_RC_18_0
*919 sum_gen/cs_3/rca1/FAI_1/U3
*920 sum_gen/cs_3/rca1/FAI_1/U4
*921 sum_gen/cs_3/rca1/FAI_1/U1
*922 sum_gen/cs_3/rca1/FAI_2/U3
*923 sum_gen/cs_3/rca1/FAI_2/U4
*924 sum_gen/cs_3/rca1/FAI_2/U1
*925 sum_gen/cs_3/rca1/FAI_2/U2
*926 sum_gen/cs_3/rca1/FAI_3/U3
*927 sum_gen/cs_3/rca1/FAI_3/U4
*928 sum_gen/cs_3/rca1/FAI_3/U1
*929 sum_gen/cs_3/rca1/FAI_3/U2
*930 sum_gen/cs_3/rca1/FAI_4/U3
*931 sum_gen/cs_3/rca1/FAI_4/U4
*932 sum_gen/cs_3/rca1/FAI_4/U1
*933 sum_gen/cs_3/rca1/FAI_4/U2
*934 sum_gen/cs_3/mux0/UIV/U1
*935 sum_gen/cs_3/mux0/UND1_0/U1
*936 sum_gen/cs_3/mux0/UND2_0/U1
*937 sum_gen/cs_3/mux0/UND3_0/U1
*938 sum_gen/cs_3/mux0/UND1_1/U1
*939 sum_gen/cs_3/mux0/UND2_1/U1
*940 sum_gen/cs_3/mux0/UND3_1/U1
*941 sum_gen/cs_3/mux0/UND1_2/U1
*942 sum_gen/cs_3/mux0/UND2_2/U1
*943 sum_gen/cs_3/mux0/UND3_2/U1
*944 sum_gen/cs_3/mux0/UND1_3/U1
*945 sum_gen/cs_3/mux0/UND2_3/U1
*946 sum_gen/cs_3/mux0/UND3_3/U1
*947 sum_gen/cs_4/rca0/FAI_1/FE_RC_4_0
*948 sum_gen/cs_4/rca0/FAI_1/U4
*949 sum_gen/cs_4/rca0/FAI_1/U1
*950 sum_gen/cs_4/rca0/FAI_2/U3
*951 sum_gen/cs_4/rca0/FAI_2/U4
*952 sum_gen/cs_4/rca0/FAI_2/U1
*953 sum_gen/cs_4/rca0/FAI_2/U2
*954 sum_gen/cs_4/rca0/FAI_3/U3
*955 sum_gen/cs_4/rca0/FAI_3/U4
*956 sum_gen/cs_4/rca0/FAI_3/U1
*957 sum_gen/cs_4/rca0/FAI_3/U2
*958 sum_gen/cs_4/rca0/FAI_4/U3
*959 sum_gen/cs_4/rca0/FAI_4/U4
*960 sum_gen/cs_4/rca0/FAI_4/U1
*961 sum_gen/cs_4/rca0/FAI_4/U2
*962 sum_gen/cs_4/rca1/FAI_1/FE_RC_19_0
*963 sum_gen/cs_4/rca1/FAI_1/U3
*964 sum_gen/cs_4/rca1/FAI_1/U4
*965 sum_gen/cs_4/rca1/FAI_1/U1
*966 sum_gen/cs_4/rca1/FAI_2/U3
*967 sum_gen/cs_4/rca1/FAI_2/U4
*968 sum_gen/cs_4/rca1/FAI_2/U1
*969 sum_gen/cs_4/rca1/FAI_2/U2
*970 sum_gen/cs_4/rca1/FAI_3/U3
*971 sum_gen/cs_4/rca1/FAI_3/U4
*972 sum_gen/cs_4/rca1/FAI_3/U1
*973 sum_gen/cs_4/rca1/FAI_3/U2
*974 sum_gen/cs_4/rca1/FAI_4/U3
*975 sum_gen/cs_4/rca1/FAI_4/U4
*976 sum_gen/cs_4/rca1/FAI_4/U1
*977 sum_gen/cs_4/rca1/FAI_4/U2
*978 sum_gen/cs_4/mux0/FE_OFC0_cg_out_3
*979 sum_gen/cs_4/mux0/UND1_0/U1
*980 sum_gen/cs_4/mux0/UND2_0/U1
*981 sum_gen/cs_4/mux0/UND3_0/U1
*982 sum_gen/cs_4/mux0/UND1_1/U1
*983 sum_gen/cs_4/mux0/UND2_1/U1
*984 sum_gen/cs_4/mux0/UND3_1/U1
*985 sum_gen/cs_4/mux0/UND1_2/U1
*986 sum_gen/cs_4/mux0/UND2_2/U1
*987 sum_gen/cs_4/mux0/UND3_2/U1
*988 sum_gen/cs_4/mux0/UND1_3/U1
*989 sum_gen/cs_4/mux0/UND2_3/U1
*990 sum_gen/cs_4/mux0/UND3_3/U1
*991 sum_gen/cs_5/rca0/FAI_1/U3
*992 sum_gen/cs_5/rca0/FAI_1/U4
*993 sum_gen/cs_5/rca0/FAI_1/U1
*994 sum_gen/cs_5/rca0/FAI_1/U2
*995 sum_gen/cs_5/rca0/FAI_2/U3
*996 sum_gen/cs_5/rca0/FAI_2/U4
*997 sum_gen/cs_5/rca0/FAI_2/U1
*998 sum_gen/cs_5/rca0/FAI_2/U2
*999 sum_gen/cs_5/rca0/FAI_3/U3
*1000 sum_gen/cs_5/rca0/FAI_3/U4
*1001 sum_gen/cs_5/rca0/FAI_3/U1
*1002 sum_gen/cs_5/rca0/FAI_3/U2
*1003 sum_gen/cs_5/rca0/FAI_4/U3
*1004 sum_gen/cs_5/rca0/FAI_4/U4
*1005 sum_gen/cs_5/rca0/FAI_4/U1
*1006 sum_gen/cs_5/rca0/FAI_4/U2
*1007 sum_gen/cs_5/rca1/FAI_1/FE_RC_14_0
*1008 sum_gen/cs_5/rca1/FAI_1/U3
*1009 sum_gen/cs_5/rca1/FAI_1/U4
*1010 sum_gen/cs_5/rca1/FAI_1/U1
*1011 sum_gen/cs_5/rca1/FAI_2/U3
*1012 sum_gen/cs_5/rca1/FAI_2/U4
*1013 sum_gen/cs_5/rca1/FAI_2/U1
*1014 sum_gen/cs_5/rca1/FAI_2/U2
*1015 sum_gen/cs_5/rca1/FAI_3/U3
*1016 sum_gen/cs_5/rca1/FAI_3/U4
*1017 sum_gen/cs_5/rca1/FAI_3/U1
*1018 sum_gen/cs_5/rca1/FAI_3/U2
*1019 sum_gen/cs_5/rca1/FAI_4/U3
*1020 sum_gen/cs_5/rca1/FAI_4/U4
*1021 sum_gen/cs_5/rca1/FAI_4/U1
*1022 sum_gen/cs_5/rca1/FAI_4/U2
*1023 sum_gen/cs_5/mux0/UIV/U1
*1024 sum_gen/cs_5/mux0/UND1_0/U1
*1025 sum_gen/cs_5/mux0/UND2_0/U1
*1026 sum_gen/cs_5/mux0/UND3_0/U1
*1027 sum_gen/cs_5/mux0/UND1_1/U1
*1028 sum_gen/cs_5/mux0/UND2_1/U1
*1029 sum_gen/cs_5/mux0/UND3_1/U1
*1030 sum_gen/cs_5/mux0/UND1_2/U1
*1031 sum_gen/cs_5/mux0/UND2_2/U1
*1032 sum_gen/cs_5/mux0/UND3_2/U1
*1033 sum_gen/cs_5/mux0/UND1_3/U1
*1034 sum_gen/cs_5/mux0/UND2_3/U1
*1035 sum_gen/cs_5/mux0/UND3_3/U1
*1036 sum_gen/cs_6/rca0/FAI_1/FE_RC_12_0
*1037 sum_gen/cs_6/rca0/FAI_1/FE_RC_5_0
*1038 sum_gen/cs_6/rca0/FAI_1/U4
*1039 sum_gen/cs_6/rca0/FAI_1/U1
*1040 sum_gen/cs_6/rca0/FAI_2/U3
*1041 sum_gen/cs_6/rca0/FAI_2/U4
*1042 sum_gen/cs_6/rca0/FAI_2/U1
*1043 sum_gen/cs_6/rca0/FAI_2/U2
*1044 sum_gen/cs_6/rca0/FAI_3/U3