*SPEF "IEEE 1481-1998"
*DESIGN "SUM"
*DATE "Wed Jun 14 12:25:54 2023"
*VENDOR "Cadence Design Systems, Inc."
*PROGRAM "Innovus"
*VERSION "20.11-s130_1"
*DESIGN_FLOW "COUPLING C" "PIN_CAP NONE" "NAME_SCOPE LOCAL"
*DIVIDER /
*DELIMITER :
*BUS_DELIMITER []
*T_UNIT 1 NS
*C_UNIT 1 PF
*R_UNIT 1 OHM
*L_UNIT 1 HENRY

// MMMC spef file for corner 'standard'

*NAME_MAP

*1 FE_PHN269_n386
*2 FE_PHN268_RST
*3 FE_PHN267_RST
*4 FE_PHN266_RST
*5 FE_PHN265_RST
*6 FE_PHN264_RST
*7 FE_PHN263_RST
*8 FE_PHN262_A_127
*9 FE_PHN261_A_125
*10 FE_PHN260_A_0
*11 FE_PHN259_A_124
*12 FE_PHN258_A_126
*13 FE_PHN257_B_19
*14 FE_PHN256_A_123
*15 FE_PHN255_Ci
*16 FE_PHN254_A_1
*17 FE_PHN253_A_11
*18 FE_PHN252_A_53
*19 FE_PHN251_A_108
*20 FE_PHN250_A_120
*21 FE_PHN249_A_121
*22 FE_PHN248_A_122
*23 FE_PHN247_B_18
*24 FE_PHN246_B_22
*25 FE_PHN245_B_25
*26 FE_PHN244_B_83
*27 FE_PHN243_B_84
*28 FE_PHN242_B_85
*29 FE_PHN241_B_115
*30 FE_PHN240_A_2
*31 FE_PHN239_A_3
*32 FE_PHN238_A_4
*33 FE_PHN237_A_10
*34 FE_PHN236_A_76
*35 FE_PHN235_A_78
*36 FE_PHN234_B_6
*37 FE_PHN233_B_7
*38 FE_PHN232_B_17
*39 FE_PHN231_B_23
*40 FE_PHN230_B_42
*41 FE_PHN229_A_9
*42 FE_PHN228_A_54
*43 FE_PHN227_A_58
*44 FE_PHN226_A_77
*45 FE_PHN225_A_119
*46 FE_PHN224_B_20
*47 FE_PHN223_B_26
*48 FE_PHN222_B_41
*49 FE_PHN221_B_88
*50 FE_PHN220_B_102
*51 FE_PHN219_B_114
*52 FE_PHN218_A_5
*53 FE_PHN217_A_48
*54 FE_PHN216_A_56
*55 FE_PHN215_A_65
*56 FE_PHN214_A_75
*57 FE_PHN213_A_107
*58 FE_PHN212_A_110
*59 FE_PHN211_A_118
*60 FE_PHN210_B_44
*61 FE_PHN209_B_45
*62 FE_PHN208_B_81
*63 FE_PHN207_B_89
*64 FE_PHN206_B_5
*65 FE_PHN205_B_15
*66 FE_PHN204_B_16
*67 FE_PHN203_B_21
*68 FE_PHN202_B_27
*69 FE_PHN201_B_36
*70 FE_PHN200_B_40
*71 FE_PHN199_B_86
*72 FE_PHN198_B_87
*73 FE_PHN197_B_103
*74 FE_PHN196_B_104
*75 FE_PHN195_B_113
*76 FE_PHN194_B_117
*77 FE_PHN193_A_6
*78 FE_PHN192_A_8
*79 FE_PHN191_A_12
*80 FE_PHN190_A_13
*81 FE_PHN189_A_14
*82 FE_PHN188_A_52
*83 FE_PHN187_A_59
*84 FE_PHN186_A_66
*85 FE_PHN185_A_70
*86 FE_PHN184_A_71
*87 FE_PHN183_A_72
*88 FE_PHN182_A_94
*89 FE_PHN181_A_95
*90 FE_PHN180_A_97
*91 FE_PHN179_A_109
*92 FE_PHN178_A_112
*93 FE_PHN177_A_113
*94 FE_PHN176_A_116
*95 FE_PHN175_B_49
*96 FE_PHN174_B_78
*97 FE_PHN173_B_90
*98 FE_PHN172_B_91
*99 FE_PHN171_B_99
*100 FE_PHN170_B_3
*101 FE_PHN169_B_13
*102 FE_PHN168_B_14
*103 FE_PHN167_B_37
*104 FE_PHN166_B_43
*105 FE_PHN165_B_82
*106 FE_PHN164_B_100
*107 FE_PHN163_B_111
*108 FE_PHN162_B_119
*109 FE_PHN161_A_15
*110 FE_PHN160_A_31
*111 FE_PHN159_A_50
*112 FE_PHN158_A_51
*113 FE_PHN157_A_57
*114 FE_PHN156_A_60
*115 FE_PHN155_A_64
*116 FE_PHN154_A_69
*117 FE_PHN153_A_74
*118 FE_PHN152_A_96
*119 FE_PHN151_A_106
*120 FE_PHN150_B_80
*121 FE_PHN149_B_4
*122 FE_PHN148_B_8
*123 FE_PHN147_B_9
*124 FE_PHN146_B_39
*125 FE_PHN145_B_105
*126 FE_PHN144_B_116
*127 FE_PHN143_B_118
*128 FE_PHN142_B_121
*129 FE_PHN141_A_7
*130 FE_PHN140_A_24
*131 FE_PHN139_A_45
*132 FE_PHN138_A_49
*133 FE_PHN137_A_55
*134 FE_PHN136_A_79
*135 FE_PHN135_A_81
*136 FE_PHN134_A_105
*137 FE_PHN133_A_111
*138 FE_PHN132_B_35
*139 FE_PHN131_B_50
*140 FE_PHN130_B_79
*141 FE_PHN129_B_2
*142 FE_PHN128_B_12
*143 FE_PHN127_B_24
*144 FE_PHN126_B_28
*145 FE_PHN125_B_101
*146 FE_PHN124_B_110
*147 FE_PHN123_B_122
*148 FE_PHN122_A_30
*149 FE_PHN121_A_32
*150 FE_PHN120_A_61
*151 FE_PHN119_A_67
*152 FE_PHN118_A_68
*153 FE_PHN117_A_73
*154 FE_PHN116_A_80
*155 FE_PHN115_A_91
*156 FE_PHN114_A_98
*157 FE_PHN113_A_117
*158 FE_PHN112_B_33
*159 FE_PHN111_B_34
*160 FE_PHN110_B_46
*161 FE_PHN109_B_47
*162 FE_PHN108_B_48
*163 FE_PHN107_B_51
*164 FE_PHN106_B_92
*165 FE_PHN105_B_98
*166 FE_PHN104_B_0
*167 FE_PHN103_B_1
*168 FE_PHN102_B_10
*169 FE_PHN101_B_29
*170 FE_PHN100_B_30
*171 FE_PHN99_B_106
*172 FE_PHN98_B_109
*173 FE_PHN97_B_112
*174 FE_PHN96_B_120
*175 FE_PHN95_B_123
*176 FE_PHN94_B_124
*177 FE_PHN93_A_16
*178 FE_PHN92_A_17
*179 FE_PHN91_A_23
*180 FE_PHN90_A_25
*181 FE_PHN89_A_29
*182 FE_PHN88_A_33
*183 FE_PHN87_A_34
*184 FE_PHN86_A_44
*185 FE_PHN85_A_47
*186 FE_PHN84_A_63
*187 FE_PHN83_A_82
*188 FE_PHN82_A_83
*189 FE_PHN81_A_89
*190 FE_PHN80_A_92
*191 FE_PHN79_A_93
*192 FE_PHN78_A_114
*193 FE_PHN77_RST
*194 FE_PHN76_B_32
*195 FE_PHN75_B_38
*196 FE_PHN74_B_52
*197 FE_PHN73_B_53
*198 FE_PHN72_B_58
*199 FE_PHN71_B_59
*200 FE_PHN70_B_74
*201 FE_PHN69_B_76
*202 FE_PHN68_B_77
*203 FE_PHN67_B_97
*204 FE_PHN66_B_11
*205 FE_PHN65_B_107
*206 FE_PHN64_B_125
*207 FE_PHN63_A_21
*208 FE_PHN62_A_27
*209 FE_PHN61_A_28
*210 FE_PHN60_A_46
*211 FE_PHN59_A_62
*212 FE_PHN58_A_84
*213 FE_PHN57_A_88
*214 FE_PHN56_A_90
*215 FE_PHN55_A_99
*216 FE_PHN54_A_101
*217 FE_PHN53_A_103
*218 FE_PHN52_A_104
*219 FE_PHN51_A_115
*220 FE_PHN50_B_54
*221 FE_PHN49_B_72
*222 FE_PHN48_B_73
*223 FE_PHN47_B_75
*224 FE_PHN46_B_93
*225 FE_PHN45_B_96
*226 FE_PHN44_B_108
*227 FE_PHN43_B_126
*228 FE_PHN42_A_18
*229 FE_PHN41_A_20
*230 FE_PHN40_A_22
*231 FE_PHN39_A_26
*232 FE_PHN38_A_35
*233 FE_PHN37_A_38
*234 FE_PHN36_A_41
*235 FE_PHN35_A_42
*236 FE_PHN34_A_85
*237 FE_PHN33_A_100
*238 FE_PHN32_A_102
*239 FE_PHN31_B_31
*240 FE_PHN30_B_55
*241 FE_PHN29_B_57
*242 FE_PHN28_B_60
*243 FE_PHN27_B_61
*244 FE_PHN26_B_94
*245 FE_PHN25_B_95
*246 FE_PHN24_A_36
*247 FE_PHN23_A_37
*248 FE_PHN22_A_39
*249 FE_PHN21_A_40
*250 FE_PHN20_A_43
*251 FE_PHN19_A_86
*252 FE_PHN18_B_127
*253 FE_PHN17_B_56
*254 FE_PHN16_B_62
*255 FE_PHN15_B_64
*256 FE_PHN14_B_70
*257 FE_PHN13_B_71
*258 FE_PHN12_A_19
*259 FE_PHN11_A_87
*260 FE_PHN10_B_63
*261 FE_PHN9_B_65
*262 FE_PHN8_B_66
*263 FE_PHN7_B_67
*264 FE_PHN6_B_68
*265 FE_PHN5_B_69
*266 FE_OFN4_n386
*267 FE_OFN3_n386
*268 FE_OFN2_n386
*269 FE_OFN1_n386
*270 FE_OFN0_n386
*271 A[127]
*272 A[126]
*273 A[125]
*274 A[124]
*275 A[123]
*276 A[122]
*277 A[121]
*278 A[120]
*279 A[119]
*280 A[118]
*281 A[117]
*282 A[116]
*283 A[115]
*284 A[114]
*285 A[113]
*286 A[112]
*287 A[111]
*288 A[110]
*289 A[109]
*290 A[108]
*291 A[107]
*292 A[106]
*293 A[105]
*294 A[104]
*295 A[103]
*296 A[102]
*297 A[101]
*298 A[100]
*299 A[99]
*300 A[98]
*301 A[97]
*302 A[96]
*303 A[95]
*304 A[94]
*305 A[93]
*306 A[92]
*307 A[91]
*308 A[90]
*309 A[89]
*310 A[88]
*311 A[87]
*312 A[86]
*313 A[85]
*314 A[84]
*315 A[83]
*316 A[82]
*317 A[81]
*318 A[80]
*319 A[79]
*320 A[78]
*321 A[77]
*322 A[76]
*323 A[75]
*324 A[74]
*325 A[73]
*326 A[72]
*327 A[71]
*328 A[70]
*329 A[69]
*330 A[68]
*331 A[67]
*332 A[66]
*333 A[65]
*334 A[64]
*335 A[63]
*336 A[62]
*337 A[61]
*338 A[60]
*339 A[59]
*340 A[58]
*341 A[57]
*342 A[56]
*343 A[55]
*344 A[54]
*345 A[53]
*346 A[52]
*347 A[51]
*348 A[50]
*349 A[49]
*350 A[48]
*351 A[47]
*352 A[46]
*353 A[45]
*354 A[44]
*355 A[43]
*356 A[42]
*357 A[41]
*358 A[40]
*359 A[39]
*360 A[38]
*361 A[37]
*362 A[36]
*363 A[35]
*364 A[34]
*365 A[33]
*366 A[32]
*367 A[31]
*368 A[30]
*369 A[29]
*370 A[28]
*371 A[27]
*372 A[26]
*373 A[25]
*374 A[24]
*375 A[23]
*376 A[22]
*377 A[21]
*378 A[20]
*379 A[19]
*380 A[18]
*381 A[17]
*382 A[16]
*383 A[15]
*384 A[14]
*385 A[13]
*386 A[12]
*387 A[11]
*388 A[10]
*389 A[9]
*390 A[8]
*391 A[7]
*392 A[6]
*393 A[5]
*394 A[4]
*395 A[3]
*396 A[2]
*397 A[1]
*398 A[0]
*399 B[127]
*400 B[126]
*401 B[125]
*402 B[124]
*403 B[123]
*404 B[122]
*405 B[121]
*406 B[120]
*407 B[119]
*408 B[118]
*409 B[117]
*410 B[116]
*411 B[115]
*412 B[114]
*413 B[113]
*414 B[112]
*415 B[111]
*416 B[110]
*417 B[109]
*418 B[108]
*419 B[107]
*420 B[106]
*421 B[105]
*422 B[104]
*423 B[103]
*424 B[102]
*425 B[101]
*426 B[100]
*427 B[99]
*428 B[98]
*429 B[97]
*430 B[96]
*431 B[95]
*432 B[94]
*433 B[93]
*434 B[92]
*435 B[91]
*436 B[90]
*437 B[89]
*438 B[88]
*439 B[87]
*440 B[86]
*441 B[85]
*442 B[84]
*443 B[83]
*444 B[82]
*445 B[81]
*446 B[80]
*447 B[79]
*448 B[78]
*449 B[77]
*450 B[76]
*451 B[75]
*452 B[74]
*453 B[73]
*454 B[72]
*455 B[71]
*456 B[70]
*457 B[69]
*458 B[68]
*459 B[67]
*460 B[66]
*461 B[65]
*462 B[64]
*463 B[63]
*464 B[62]
*465 B[61]
*466 B[60]
*467 B[59]
*468 B[58]
*469 B[57]
*470 B[56]
*471 B[55]
*472 B[54]
*473 B[53]
*474 B[52]
*475 B[51]
*476 B[50]
*477 B[49]
*478 B[48]
*479 B[47]
*480 B[46]
*481 B[45]
*482 B[44]
*483 B[43]
*484 B[42]
*485 B[41]
*486 B[40]
*487 B[39]
*488 B[38]
*489 B[37]
*490 B[36]
*491 B[35]
*492 B[34]
*493 B[33]
*494 B[32]
*495 B[31]
*496 B[30]
*497 B[29]
*498 B[28]
*499 B[27]
*500 B[26]
*501 B[25]
*502 B[24]
*503 B[23]
*504 B[22]
*505 B[21]
*506 B[20]
*507 B[19]
*508 B[18]
*509 B[17]
*510 B[16]
*511 B[15]
*512 B[14]
*513 B[13]
*514 B[12]
*515 B[11]
*516 B[10]
*517 B[9]
*518 B[8]
*519 B[7]
*520 B[6]
*521 B[5]
*522 B[4]
*523 B[3]
*524 B[2]
*525 B[1]
*526 B[0]
*527 Ci
*528 CLK
*529 RST
*530 S[127]
*531 S[126]
*532 S[125]
*533 S[124]
*534 S[123]
*535 S[122]
*536 S[121]
*537 S[120]
*538 S[119]
*539 S[118]
*540 S[117]
*541 S[116]
*542 S[115]
*543 S[114]
*544 S[113]
*545 S[112]
*546 S[111]
*547 S[110]
*548 S[109]
*549 S[108]
*550 S[107]
*551 S[106]
*552 S[105]
*553 S[104]
*554 S[103]
*555 S[102]
*556 S[101]
*557 S[100]
*558 S[99]
*559 S[98]
*560 S[97]
*561 S[96]
*562 S[95]
*563 S[94]
*564 S[93]
*565 S[92]
*566 S[91]
*567 S[90]
*568 S[89]
*569 S[88]
*570 S[87]
*571 S[86]
*572 S[85]
*573 S[84]
*574 S[83]
*575 S[82]
*576 S[81]
*577 S[80]
*578 S[79]
*579 S[78]
*580 S[77]
*581 S[76]
*582 S[75]
*583 S[74]
*584 S[73]
*585 S[72]
*586 S[71]
*587 S[70]
*588 S[69]
*589 S[68]
*590 S[67]
*591 S[66]
*592 S[65]
*593 S[64]
*594 S[63]
*595 S[62]
*596 S[61]
*597 S[60]
*598 S[59]
*599 S[58]
*600 S[57]
*601 S[56]
*602 S[55]
*603 S[54]
*604 S[53]
*605 S[52]
*606 S[51]
*607 S[50]
*608 S[49]
*609 S[48]
*610 S[47]
*611 S[46]
*612 S[45]
*613 S[44]
*614 S[43]
*615 S[42]
*616 S[41]
*617 S[40]
*618 S[39]
*619 S[38]
*620 S[37]
*621 S[36]
*622 S[35]
*623 S[34]
*624 S[33]
*625 S[32]
*626 S[31]
*627 S[30]
*628 S[29]
*629 S[28]
*630 S[27]
*631 S[26]
*632 S[25]
*633 S[24]
*634 S[23]
*635 S[22]
*636 S[21]
*637 S[20]
*638 S[19]
*639 S[18]
*640 S[17]
*641 S[16]
*642 S[15]
*643 S[14]
*644 S[13]
*645 S[12]
*646 S[11]
*647 S[10]
*648 S[9]
*649 S[8]
*650 S[7]
*651 S[6]
*652 S[5]
*653 S[4]
*654 S[3]
*655 S[2]
*656 S[1]
*657 S[0]
*658 Co
*659 CITMP
*660 COTMP
*661 n386
*662 ATMP[127]
*663 ATMP[126]
*664 ATMP[125]
*665 ATMP[124]
*666 ATMP[123]
*667 ATMP[122]
*668 ATMP[121]
*669 ATMP[120]
*670 ATMP[119]
*671 ATMP[118]
*672 ATMP[117]
*673 ATMP[116]
*674 ATMP[115]
*675 ATMP[114]
*676 ATMP[113]
*677 ATMP[112]
*678 ATMP[111]
*679 ATMP[110]
*680 ATMP[109]
*681 ATMP[108]
*682 ATMP[107]
*683 ATMP[106]
*684 ATMP[105]
*685 ATMP[104]
*686 ATMP[103]
*687 ATMP[102]
*688 ATMP[101]
*689 ATMP[100]
*690 ATMP[99]
*691 ATMP[98]
*692 ATMP[97]
*693 ATMP[96]
*694 ATMP[95]
*695 ATMP[94]
*696 ATMP[93]
*697 ATMP[92]
*698 ATMP[91]
*699 ATMP[90]
*700 ATMP[89]
*701 ATMP[88]
*702 ATMP[87]
*703 ATMP[86]
*704 ATMP[85]
*705 ATMP[84]
*706 ATMP[83]
*707 ATMP[82]
*708 ATMP[81]
*709 ATMP[80]
*710 ATMP[79]
*711 ATMP[78]
*712 ATMP[77]
*713 ATMP[76]
*714 ATMP[75]
*715 ATMP[74]
*716 ATMP[73]
*717 ATMP[72]
*718 ATMP[71]
*719 ATMP[70]
*720 ATMP[69]
*721 ATMP[68]
*722 ATMP[67]
*723 ATMP[66]
*724 ATMP[65]
*725 ATMP[64]
*726 ATMP[63]
*727 ATMP[62]
*728 ATMP[61]
*729 ATMP[60]
*730 ATMP[59]
*731 ATMP[58]
*732 ATMP[57]
*733 ATMP[56]
*734 ATMP[55]
*735 ATMP[54]
*736 ATMP[53]
*737 ATMP[52]
*738 ATMP[51]
*739 ATMP[50]
*740 ATMP[49]
*741 ATMP[48]
*742 ATMP[47]
*743 ATMP[46]
*744 ATMP[45]
*745 ATMP[44]
*746 ATMP[43]
*747 ATMP[42]
*748 ATMP[41]
*749 ATMP[40]
*750 ATMP[39]
*751 ATMP[38]
*752 ATMP[37]
*753 ATMP[36]
*754 ATMP[35]
*755 ATMP[34]
*756 ATMP[33]
*757 ATMP[32]
*758 ATMP[31]
*759 ATMP[30]
*760 ATMP[29]
*761 ATMP[28]
*762 ATMP[27]
*763 ATMP[26]
*764 ATMP[25]
*765 ATMP[24]
*766 ATMP[23]
*767 ATMP[22]
*768 ATMP[21]
*769 ATMP[20]
*770 ATMP[19]
*771 ATMP[18]
*772 ATMP[17]
*773 ATMP[16]
*774 ATMP[15]
*775 ATMP[14]
*776 ATMP[13]
*777 ATMP[12]
*778 ATMP[11]
*779 ATMP[10]
*780 ATMP[9]
*781 ATMP[8]
*782 ATMP[7]
*783 ATMP[6]
*784 ATMP[5]
*785 ATMP[4]
*786 ATMP[3]
*787 ATMP[2]
*788 ATMP[1]
*789 ATMP[0]
*790 BTMP[127]
*791 BTMP[126]
*792 BTMP[125]
*793 BTMP[124]
*794 BTMP[123]
*795 BTMP[122]
*796 BTMP[121]
*797 BTMP[120]
*798 BTMP[119]
*799 BTMP[118]
*800 BTMP[117]
*801 BTMP[116]
*802 BTMP[115]
*803 BTMP[114]
*804 BTMP[113]
*805 BTMP[112]
*806 BTMP[111]
*807 BTMP[110]
*808 BTMP[109]
*809 BTMP[108]
*810 BTMP[107]
*811 BTMP[106]
*812 BTMP[105]
*813 BTMP[104]
*814 BTMP[103]
*815 BTMP[102]
*816 BTMP[101]
*817 BTMP[100]
*818 BTMP[99]
*819 BTMP[98]
*820 BTMP[97]
*821 BTMP[96]
*822 BTMP[95]
*823 BTMP[94]
*824 BTMP[93]
*825 BTMP[92]
*826 BTMP[91]
*827 BTMP[90]
*828 BTMP[89]
*829 BTMP[88]
*830 BTMP[87]
*831 BTMP[86]
*832 BTMP[85]
*833 BTMP[84]
*834 BTMP[83]
*835 BTMP[82]
*836 BTMP[81]
*837 BTMP[80]
*838 BTMP[79]
*839 BTMP[78]
*840 BTMP[77]
*841 BTMP[76]
*842 BTMP[75]
*843 BTMP[74]
*844 BTMP[73]
*845 BTMP[72]
*846 BTMP[71]
*847 BTMP[70]
*848 BTMP[69]
*849 BTMP[68]
*850 BTMP[67]
*851 BTMP[66]
*852 BTMP[65]
*853 BTMP[64]
*854 BTMP[63]
*855 BTMP[62]
*856 BTMP[61]
*857 BTMP[60]
*858 BTMP[59]
*859 BTMP[58]
*860 BTMP[57]
*861 BTMP[56]
*862 BTMP[55]
*863 BTMP[54]
*864 BTMP[53]
*865 BTMP[52]
*866 BTMP[51]
*867 BTMP[50]
*868 BTMP[49]
*869 BTMP[48]
*870 BTMP[47]
*871 BTMP[46]
*872 BTMP[45]
*873 BTMP[44]
*874 BTMP[43]
*875 BTMP[42]
*876 BTMP[41]
*877 BTMP[40]
*878 BTMP[39]
*879 BTMP[38]
*880 BTMP[37]
*881 BTMP[36]
*882 BTMP[35]
*883 BTMP[34]
*884 BTMP[33]
*885 BTMP[32]
*886 BTMP[31]
*887 BTMP[30]
*888 BTMP[29]
*889 BTMP[28]
*890 BTMP[27]
*891 BTMP[26]
*892 BTMP[25]
*893 BTMP[24]
*894 BTMP[23]
*895 BTMP[22]
*896 BTMP[21]
*897 BTMP[20]
*898 BTMP[19]
*899 BTMP[18]
*900 BTMP[17]
*901 BTMP[16]
*902 BTMP[15]
*903 BTMP[14]
*904 BTMP[13]
*905 BTMP[12]
*906 BTMP[11]
*907 BTMP[10]
*908 BTMP[9]
*909 BTMP[8]
*910 BTMP[7]
*911 BTMP[6]
*912 BTMP[5]
*913 BTMP[4]
*914 BTMP[3]
*915 BTMP[2]
*916 BTMP[1]
*917 BTMP[0]
*918 STMP[127]
*919 STMP[126]
*920 STMP[125]
*921 STMP[124]
*922 STMP[123]
*923 STMP[122]
*924 STMP[121]
*925 STMP[120]
*926 STMP[119]
*927 STMP[118]
*928 STMP[117]
*929 STMP[116]
*930 STMP[115]
*931 STMP[114]
*932 STMP[113]
*933 STMP[112]
*934 STMP[111]
*935 STMP[110]
*936 STMP[109]
*937 STMP[108]
*938 STMP[107]
*939 STMP[106]
*940 STMP[105]
*941 STMP[104]
*942 STMP[103]
*943 STMP[102]
*944 STMP[101]
*945 STMP[100]
*946 STMP[99]
*947 STMP[98]
*948 STMP[97]
*949 STMP[96]
*950 STMP[95]
*951 STMP[94]
*952 STMP[93]
*953 STMP[92]
*954 STMP[91]
*955 STMP[90]
*956 STMP[89]
*957 STMP[88]
*958 STMP[87]
*959 STMP[86]
*960 STMP[85]
*961 STMP[84]
*962 STMP[83]
*963 STMP[82]
*964 STMP[81]
*965 STMP[80]
*966 STMP[79]
*967 STMP[78]
*968 STMP[77]
*969 STMP[76]
*970 STMP[75]
*971 STMP[74]
*972 STMP[73]
*973 STMP[72]
*974 STMP[71]
*975 STMP[70]
*976 STMP[69]
*977 STMP[68]
*978 STMP[67]
*979 STMP[66]
*980 STMP[65]
*981 STMP[64]
*982 STMP[63]
*983 STMP[62]
*984 STMP[61]
*985 STMP[60]
*986 STMP[59]
*987 STMP[58]
*988 STMP[57]
*989 STMP[56]
*990 STMP[55]
*991 STMP[54]
*992 STMP[53]
*993 STMP[52]
*994 STMP[51]
*995 STMP[50]
*996 STMP[49]
*997 STMP[48]
*998 STMP[47]
*999 STMP[46]
*1000 STMP[45]
*1001 STMP[44]
*1002 STMP[43]
*1003 STMP[42]
*1004 STMP[41]
*1005 STMP[40]
*1006 STMP[39]
*1007 STMP[38]
*1008 STMP[37]
*1009 STMP[36]
*1010 STMP[35]
*1011 STMP[34]
*1012 STMP[33]
*1013 STMP[32]
*1014 STMP[31]
*1015 STMP[30]
*1016 STMP[29]
*1017 STMP[28]
*1018 STMP[27]
*1019 STMP[26]
*1020 STMP[25]
*1021 STMP[24]
*1022 STMP[23]
*1023 STMP[22]
*1024 STMP[21]
*1025 STMP[20]
*1026 STMP[19]
*1027 STMP[18]
*1028 STMP[17]
*1029 STMP[16]
*1030 STMP[15]
*1031 STMP[14]
*1032 STMP[13]
*1033 STMP[12]
*1034 STMP[11]
*1035 STMP[10]
*1036 STMP[9]
*1037 STMP[8]
*1038 STMP[7]
*1039 STMP[6]
*1040 STMP[5]
*1041 STMP[4]
*1042 STMP[3]
*1043 STMP[2]
*1044 STMP[1]
*1045 STMP[0]
*1046 maprca/CTMP[127]
*1047 maprca/CTMP[126]
*1048 maprca/CTMP[125]
*1049 maprca/CTMP[124]
*1050 maprca/CTMP[123]
*1051 maprca/CTMP[122]
*1052 maprca/CTMP[121]
*1053 maprca/CTMP[120]
*1054 maprca/CTMP[119]
*1055 maprca/CTMP[118]
*1056 maprca/CTMP[117]
*1057 maprca/CTMP[116]
*1058 maprca/CTMP[115]
*1059 maprca/CTMP[114]
*1060 maprca/CTMP[113]
*1061 maprca/CTMP[112]
*1062 maprca/CTMP[111]
*1063 maprca/CTMP[110]
*1064 maprca/CTMP[109]
*1065 maprca/CTMP[108]
*1066 maprca/CTMP[107]
*1067 maprca/CTMP[106]
*1068 maprca/CTMP[105]
*1069 maprca/CTMP[104]
*1070 maprca/CTMP[103]
*1071 maprca/CTMP[102]
*1072 maprca/CTMP[101]
*1073 maprca/CTMP[100]
*1074 maprca/CTMP[99]
*1075 maprca/CTMP[98]
*1076 maprca/CTMP[97]
*1077 maprca/CTMP[96]
*1078 maprca/CTMP[95]
*1079 maprca/CTMP[94]
*1080 maprca/CTMP[93]
*1081 maprca/CTMP[92]
*1082 maprca/CTMP[91]
*1083 maprca/CTMP[90]
*1084 maprca/CTMP[89]
*1085 maprca/CTMP[88]
*1086 maprca/CTMP[87]
*1087 maprca/CTMP[86]
*1088 maprca/CTMP[85]
*1089 maprca/CTMP[84]
*1090 maprca/CTMP[83]
*1091 maprca/CTMP[82]
*1092 maprca/CTMP[81]
*1093 maprca/CTMP[80]
*1094 maprca/CTMP[79]
*1095 maprca/CTMP[78]
*1096 maprca/CTMP[77]
*1097 maprca/CTMP[76]
*1098 maprca/CTMP[75]
*1099 maprca/CTMP[74]
*1100 maprca/CTMP[73]
*1101 maprca/CTMP[72]
*1102 maprca/CTMP[71]
*1103 maprca/CTMP[70]
*1104 maprca/CTMP[69]
*1105 maprca/CTMP[68]
*1106 maprca/CTMP[67]
*1107 maprca/CTMP[66]
*1108 maprca/CTMP[65]
*1109 maprca/CTMP[64]
*1110 maprca/CTMP[63]
*1111 maprca/CTMP[62]
*1112 maprca/CTMP[61]
*1113 maprca/CTMP[60]
*1114 maprca/CTMP[59]
*1115 maprca/CTMP[58]
*1116 maprca/CTMP[57]
*1117 maprca/CTMP[56]
*1118 maprca/CTMP[55]
*1119 maprca/CTMP[54]
*1120 maprca/CTMP[53]
*1121 maprca/CTMP[52]
*1122 maprca/CTMP[51]
*1123 maprca/CTMP[50]
*1124 maprca/CTMP[49]
*1125 maprca/CTMP[48]
*1126 maprca/CTMP[47]
*1127 maprca/CTMP[46]
*1128 maprca/CTMP[45]
*1129 maprca/CTMP[44]
*1130 maprca/CTMP[43]
*1131 maprca/CTMP[42]
*1132 maprca/CTMP[41]
*1133 maprca/CTMP[40]
*1134 maprca/CTMP[39]
*1135 maprca/CTMP[38]
*1136 maprca/CTMP[37]
*1137 maprca/CTMP[36]
*1138 maprca/CTMP[35]
*1139 maprca/CTMP[34]
*1140 maprca/CTMP[33]
*1141 maprca/CTMP[32]
*1142 maprca/CTMP[31]
*1143 maprca/CTMP[30]
*1144 maprca/CTMP[29]
*1145 maprca/CTMP[28]
*1146 maprca/CTMP[27]
*1147 maprca/CTMP[26]
*1148 maprca/CTMP[25]
*1149 maprca/CTMP[24]
*1150 maprca/CTMP[23]
*1151 maprca/CTMP[22]
*1152 maprca/CTMP[21]
*1153 maprca/CTMP[20]
*1154 maprca/CTMP[19]
*1155 maprca/CTMP[18]
*1156 maprca/CTMP[17]
*1157 maprca/CTMP[16]
*1158 maprca/CTMP[15]
*1159 maprca/CTMP[14]
*1160 maprca/CTMP[13]
*1161 maprca/CTMP[12]
*1162 maprca/CTMP[11]
*1163 maprca/CTMP[10]
*1164 maprca/CTMP[9]
*1165 maprca/CTMP[8]
*1166 maprca/CTMP[7]
*1167 maprca/CTMP[6]
*1168 maprca/CTMP[5]
*1169 maprca/CTMP[4]
*1170 maprca/CTMP[3]
*1171 maprca/CTMP[2]
*1172 maprca/CTMP[1]
*1173 maprca/FAI_1/n1
*1174 maprca/FAI_1/n2
*1175 maprca/FAI_1/n3
*1176 maprca/FAI_2/n1
*1177 maprca/FAI_2/n2
*1178 maprca/FAI_2/n3
*1179 maprca/FAI_2/n4
*1180 maprca/FAI_3/n1
*1181 maprca/FAI_3/n2
*1182 maprca/FAI_3/n3
*1183 maprca/FAI_3/n4
*1184 maprca/FAI_4/n1
*1185 maprca/FAI_4/n2
*1186 maprca/FAI_4/n3
*1187 maprca/FAI_4/n4
*1188 maprca/FAI_5/n1
*1189 maprca/FAI_5/n2
*1190 maprca/FAI_5/n3
*1191 maprca/FAI_5/n4
*1192 maprca/FAI_6/n1
*1193 maprca/FAI_6/n2
*1194 maprca/FAI_6/n3
*1195 maprca/FAI_6/n4
*1196 maprca/FAI_7/n1
*1197 maprca/FAI_7/n2
*1198 maprca/FAI_7/n3
*1199 maprca/FAI_7/n4
*1200 maprca/FAI_8/n1
*1201 maprca/FAI_8/n2
*1202 maprca/FAI_8/n3
*1203 maprca/FAI_8/n4
*1204 maprca/FAI_9/n1
*1205 maprca/FAI_9/n2
*1206 maprca/FAI_9/n3
*1207 maprca/FAI_9/n4
*1208 maprca/FAI_10/n1
*1209 maprca/FAI_10/n2
*1210 maprca/FAI_10/n3
*1211 maprca/FAI_10/n4
*1212 maprca/FAI_11/n1
*1213 maprca/FAI_11/n2
*1214 maprca/FAI_11/n3
*1215 maprca/FAI_11/n4
*1216 maprca/FAI_12/n1
*1217 maprca/FAI_12/n2
*1218 maprca/FAI_12/n3
*1219 maprca/FAI_12/n4
*1220 maprca/FAI_13/n1
*1221 maprca/FAI_13/n2
*1222 maprca/FAI_13/n3
*1223 maprca/FAI_13/n4
*1224 maprca/FAI_14/n1
*1225 maprca/FAI_14/n2
*1226 maprca/FAI_14/n3
*1227 maprca/FAI_14/n4
*1228 maprca/FAI_15/n1
*1229 maprca/FAI_15/n2
*1230 maprca/FAI_15/n3
*1231 maprca/FAI_15/n4
*1232 maprca/FAI_16/n1
*1233 maprca/FAI_16/n2
*1234 maprca/FAI_16/n3
*1235 maprca/FAI_16/n4
*1236 maprca/FAI_17/n1
*1237 maprca/FAI_17/n2
*1238 maprca/FAI_17/n3
*1239 maprca/FAI_17/n4
*1240 maprca/FAI_18/n1
*1241 maprca/FAI_18/n2
*1242 maprca/FAI_18/n3
*1243 maprca/FAI_18/n4
*1244 maprca/FAI_19/n1
*1245 maprca/FAI_19/n2
*1246 maprca/FAI_19/n3
*1247 maprca/FAI_19/n4
*1248 maprca/FAI_20/n1
*1249 maprca/FAI_20/n2
*1250 maprca/FAI_20/n3
*1251 maprca/FAI_20/n4
*1252 maprca/FAI_21/n1
*1253 maprca/FAI_21/n2
*1254 maprca/FAI_21/n3
*1255 maprca/FAI_21/n4
*1256 maprca/FAI_22/n1
*1257 maprca/FAI_22/n2
*1258 maprca/FAI_22/n3
*1259 maprca/FAI_22/n4
*1260 maprca/FAI_23/n1
*1261 maprca/FAI_23/n2
*1262 maprca/FAI_23/n3
*1263 maprca/FAI_23/n4
*1264 maprca/FAI_24/n1
*1265 maprca/FAI_24/n2
*1266 maprca/FAI_24/n3
*1267 maprca/FAI_24/n4
*1268 maprca/FAI_25/n1
*1269 maprca/FAI_25/n2
*1270 maprca/FAI_25/n3
*1271 maprca/FAI_26/n1
*1272 maprca/FAI_26/n2
*1273 maprca/FAI_26/n3
*1274 maprca/FAI_27/n1
*1275 maprca/FAI_27/n2
*1276 maprca/FAI_27/n3
*1277 maprca/FAI_28/n1
*1278 maprca/FAI_28/n2
*1279 maprca/FAI_28/n3
*1280 maprca/FAI_29/n1
*1281 maprca/FAI_29/n2
*1282 maprca/FAI_29/n3
*1283 maprca/FAI_30/n1
*1284 maprca/FAI_30/n2
*1285 maprca/FAI_30/n3
*1286 maprca/FAI_31/n1
*1287 maprca/FAI_31/n2
*1288 maprca/FAI_31/n3
*1289 maprca/FAI_32/n1
*1290 maprca/FAI_32/n2
*1291 maprca/FAI_32/n3
*1292 maprca/FAI_33/n1
*1293 maprca/FAI_33/n2
*1294 maprca/FAI_33/n3
*1295 maprca/FAI_34/n1
*1296 maprca/FAI_34/n2
*1297 maprca/FAI_34/n3
*1298 maprca/FAI_35/n1
*1299 maprca/FAI_35/n2
*1300 maprca/FAI_35/n3
*1301 maprca/FAI_36/n1
*1302 maprca/FAI_36/n2
*1303 maprca/FAI_36/n3
*1304 maprca/FAI_37/n1
*1305 maprca/FAI_37/n2
*1306 maprca/FAI_37/n3
*1307 maprca/FAI_38/n1
*1308 maprca/FAI_38/n2
*1309 maprca/FAI_38/n3
*1310 maprca/FAI_39/n1
*1311 maprca/FAI_39/n2
*1312 maprca/FAI_39/n3
*1313 maprca/FAI_40/n1
*1314 maprca/FAI_40/n2
*1315 maprca/FAI_40/n3
*1316 maprca/FAI_41/n1
*1317 maprca/FAI_41/n2
*1318 maprca/FAI_41/n3
*1319 maprca/FAI_42/n1
*1320 maprca/FAI_42/n2
*1321 maprca/FAI_42/n3
*1322 maprca/FAI_43/n1
*1323 maprca/FAI_43/n2
*1324 maprca/FAI_43/n3
*1325 maprca/FAI_44/n1
*1326 maprca/FAI_44/n2
*1327 maprca/FAI_44/n3
*1328 maprca/FAI_45/n1
*1329 maprca/FAI_45/n2
*1330 maprca/FAI_45/n3
*1331 maprca/FAI_46/n1
*1332 maprca/FAI_46/n2
*1333 maprca/FAI_46/n3
*1334 maprca/FAI_47/n1
*1335 maprca/FAI_47/n2
*1336 maprca/FAI_47/n3
*1337 maprca/FAI_48/n1
*1338 maprca/FAI_48/n2
*1339 maprca/FAI_48/n3
*1340 maprca/FAI_49/n1
*1341 maprca/FAI_49/n2
*1342 maprca/FAI_49/n3
*1343 maprca/FAI_50/n1
*1344 maprca/FAI_50/n2
*1345 maprca/FAI_50/n3
*1346 maprca/FAI_51/n1
*1347 maprca/FAI_51/n2
*1348 maprca/FAI_51/n3
*1349 maprca/FAI_52/n1
*1350 maprca/FAI_52/n2
*1351 maprca/FAI_52/n3
*1352 maprca/FAI_53/n1
*1353 maprca/FAI_53/n2
*1354 maprca/FAI_53/n3
*1355 maprca/FAI_54/n1
*1356 maprca/FAI_54/n2
*1357 maprca/FAI_54/n3
*1358 maprca/FAI_55/n1
*1359 maprca/FAI_55/n2
*1360 maprca/FAI_55/n3
*1361 maprca/FAI_56/n1
*1362 maprca/FAI_56/n2
*1363 maprca/FAI_56/n3
*1364 maprca/FAI_57/n1
*1365 maprca/FAI_57/n2
*1366 maprca/FAI_57/n3
*1367 maprca/FAI_58/n1
*1368 maprca/FAI_58/n2
*1369 maprca/FAI_58/n3
*1370 maprca/FAI_59/n1
*1371 maprca/FAI_59/n2
*1372 maprca/FAI_59/n3
*1373 maprca/FAI_60/n1
*1374 maprca/FAI_60/n2
*1375 maprca/FAI_60/n3
*1376 maprca/FAI_61/n1
*1377 maprca/FAI_61/n2
*1378 maprca/FAI_61/n3
*1379 maprca/FAI_62/n1
*1380 maprca/FAI_62/n2
*1381 maprca/FAI_62/n3
*1382 maprca/FAI_63/n1
*1383 maprca/FAI_63/n2
*1384 maprca/FAI_63/n3
*1385 maprca/FAI_64/n1
*1386 maprca/FAI_64/n2
*1387 maprca/FAI_64/n3
*1388 maprca/FAI_65/n1
*1389 maprca/FAI_65/n2
*1390 maprca/FAI_65/n3
*1391 maprca/FAI_66/n1
*1392 maprca/FAI_66/n2
*1393 maprca/FAI_66/n3
*1394 maprca/FAI_67/n1
*1395 maprca/FAI_67/n2
*1396 maprca/FAI_67/n3
*1397 maprca/FAI_68/n1
*1398 maprca/FAI_68/n2
*1399 maprca/FAI_68/n3
*1400 maprca/FAI_69/n1
*1401 maprca/FAI_69/n2
*1402 maprca/FAI_69/n3
*1403 maprca/FAI_70/n1
*1404 maprca/FAI_70/n2
*1405 maprca/FAI_70/n3
*1406 maprca/FAI_71/n1
*1407 maprca/FAI_71/n2
*1408 maprca/FAI_71/n3
*1409 maprca/FAI_72/n1
*1410 maprca/FAI_72/n2
*1411 maprca/FAI_72/n3
*1412 maprca/FAI_73/n1
*1413 maprca/FAI_73/n2
*1414 maprca/FAI_73/n3
*1415 maprca/FAI_74/n1
*1416 maprca/FAI_74/n2
*1417 maprca/FAI_74/n3
*1418 maprca/FAI_75/n1
*1419 maprca/FAI_75/n2
*1420 maprca/FAI_75/n3
*1421 maprca/FAI_76/n1
*1422 maprca/FAI_76/n2
*1423 maprca/FAI_76/n3
*1424 maprca/FAI_77/n1
*1425 maprca/FAI_77/n2
*1426 maprca/FAI_77/n3
*1427 maprca/FAI_78/n1
*1428 maprca/FAI_78/n2
*1429 maprca/FAI_78/n3
*1430 maprca/FAI_79/n1
*1431 maprca/FAI_79/n2
*1432 maprca/FAI_79/n3
*1433 maprca/FAI_80/n1
*1434 maprca/FAI_80/n2
*1435 maprca/FAI_80/n3
*1436 maprca/FAI_81/n1
*1437 maprca/FAI_81/n2
*1438 maprca/FAI_81/n3
*1439 maprca/FAI_82/n1
*1440 maprca/FAI_82/n2
*1441 maprca/FAI_82/n3
*1442 maprca/FAI_83/n1
*1443 maprca/FAI_83/n2
*1444 maprca/FAI_83/n3
*1445 maprca/FAI_84/n1
*1446 maprca/FAI_84/n2
*1447 maprca/FAI_84/n3
*1448 maprca/FAI_85/n1
*1449 maprca/FAI_85/n2
*1450 maprca/FAI_85/n3
*1451 maprca/FAI_86/n1
*1452 maprca/FAI_86/n2
*1453 maprca/FAI_86/n3
*1454 maprca/FAI_87/n1
*1455 maprca/FAI_87/n2
*1456 maprca/FAI_87/n3
*1457 maprca/FAI_88/n1
*1458 maprca/FAI_88/n2
*1459 maprca/FAI_88/n3
*1460 maprca/FAI_89/n1
*1461 maprca/FAI_89/n2
*1462 maprca/FAI_89/n3
*1463 maprca/FAI_90/n1
*1464 maprca/FAI_90/n2
*1465 maprca/FAI_90/n3
*1466 maprca/FAI_91/n1
*1467 maprca/FAI_91/n2
*1468 maprca/FAI_91/n3
*1469 maprca/FAI_92/n1
*1470 maprca/FAI_92/n2
*1471 maprca/FAI_92/n3
*1472 maprca/FAI_93/n1
*1473 maprca/FAI_93/n2
*1474 maprca/FAI_93/n3
*1475 maprca/FAI_94/n1
*1476 maprca/FAI_94/n2
*1477 maprca/FAI_94/n3
*1478 maprca/FAI_95/n1
*1479 maprca/FAI_95/n2
*1480 maprca/FAI_95/n3
*1481 maprca/FAI_96/n1
*1482 maprca/FAI_96/n2
*1483 maprca/FAI_96/n3
*1484 maprca/FAI_97/n1
*1485 maprca/FAI_97/n2
*1486 maprca/FAI_97/n3
*1487 maprca/FAI_98/n1
*1488 maprca/FAI_98/n2
*1489 maprca/FAI_98/n3
*1490 maprca/FAI_99/n1
*1491 maprca/FAI_99/n2
*1492 maprca/FAI_99/n3
*1493 maprca/FAI_100/n1
*1494 maprca/FAI_100/n2
*1495 maprca/FAI_100/n3
*1496 maprca/FAI_101/n1
*1497 maprca/FAI_101/n2
*1498 maprca/FAI_101/n3
*1499 maprca/FAI_102/n1
*1500 maprca/FAI_102/n2
*1501 maprca/FAI_102/n3
*1502 maprca/FAI_103/n1
*1503 maprca/FAI_103/n2
*1504 maprca/FAI_103/n3
*1505 maprca/FAI_104/n1
*1506 maprca/FAI_104/n2
*1507 maprca/FAI_104/n3
*1508 maprca/FAI_105/n1
*1509 maprca/FAI_105/n2
*1510 maprca/FAI_105/n3
*1511 maprca/FAI_105/n4
*1512 maprca/FAI_106/n1
*1513 maprca/FAI_106/n2
*1514 maprca/FAI_106/n3
*1515 maprca/FAI_106/n4
*1516 maprca/FAI_107/n1
*1517 maprca/FAI_107/n2
*1518 maprca/FAI_107/n3
*1519 maprca/FAI_107/n4
*1520 maprca/FAI_108/n1
*1521 maprca/FAI_108/n2
*1522 maprca/FAI_108/n3
*1523 maprca/FAI_108/n4
*1524 maprca/FAI_109/n1
*1525 maprca/FAI_109/n2
*1526 maprca/FAI_109/n3
*1527 maprca/FAI_109/n4
*1528 maprca/FAI_110/n1
*1529 maprca/FAI_110/n2
*1530 maprca/FAI_110/n3
*1531 maprca/FAI_110/n4
*1532 maprca/FAI_111/n1
*1533 maprca/FAI_111/n2
*1534 maprca/FAI_111/n3
*1535 maprca/FAI_111/n4
*1536 maprca/FAI_112/n1
*1537 maprca/FAI_112/n2
*1538 maprca/FAI_112/n3
*1539 maprca/FAI_112/n4
*1540 maprca/FAI_113/n1
*1541 maprca/FAI_113/n2
*1542 maprca/FAI_113/n3
*1543 maprca/FAI_113/n4
*1544 maprca/FAI_114/n1
*1545 maprca/FAI_114/n2
*1546 maprca/FAI_114/n3
*1547 maprca/FAI_114/n4
*1548 maprca/FAI_115/n1
*1549 maprca/FAI_115/n2
*1550 maprca/FAI_115/n3
*1551 maprca/FAI_115/n4
*1552 maprca/FAI_116/n1
*1553 maprca/FAI_116/n2
*1554 maprca/FAI_116/n3
*1555 maprca/FAI_116/n4
*1556 maprca/FAI_117/n1
*1557 maprca/FAI_117/n2
*1558 maprca/FAI_117/n3
*1559 maprca/FAI_117/n4
*1560 maprca/FAI_118/n1
*1561 maprca/FAI_118/n2
*1562 maprca/FAI_118/n3
*1563 maprca/FAI_118/n4
*1564 maprca/FAI_119/n1
*1565 maprca/FAI_119/n2
*1566 maprca/FAI_119/n3
*1567 maprca/FAI_119/n4
*1568 maprca/FAI_120/n1
*1569 maprca/FAI_120/n2
*1570 maprca/FAI_120/n3
*1571 maprca/FAI_120/n4
*1572 maprca/FAI_121/n1
*1573 maprca/FAI_121/n2
*1574 maprca/FAI_121/n3
*1575 maprca/FAI_121/n4
*1576 maprca/FAI_122/n1
*1577 maprca/FAI_122/n2
*1578 maprca/FAI_122/n3
*1579 maprca/FAI_122/n4
*1580 maprca/FAI_123/n1
*1581 maprca/FAI_123/n2
*1582 maprca/FAI_123/n3
*1583 maprca/FAI_123/n4
*1584 maprca/FAI_124/n1
*1585 maprca/FAI_124/n2
*1586 maprca/FAI_124/n3
*1587 maprca/FAI_124/n4
*1588 maprca/FAI_125/n1
*1589 maprca/FAI_125/n2
*1590 maprca/FAI_125/n3
*1591 maprca/FAI_125/n4
*1592 maprca/FAI_126/n1
*1593 maprca/FAI_126/n2
*1594 maprca/FAI_126/n3
*1595 maprca/FAI_126/n4
*1596 maprca/FAI_127/n1
*1597 maprca/FAI_127/n2
*1598 maprca/FAI_127/n3
*1599 maprca/FAI_127/n4
*1600 maprca/FAI_128/n1
*1601 maprca/FAI_128/n2
*1602 maprca/FAI_128/n3
*1603 maprca/FAI_128/n4
*1604 FE_PHC269_n386
*1605 FE_PHC268_RST
*1606 FE_PHC267_RST
*1607 FE_PHC266_RST
*1608 FE_PHC265_RST
*1609 FE_PHC264_RST
*1610 FE_PHC263_RST
*1611 FE_PHC262_A_127
*1612 FE_PHC261_A_125
*1613 FE_PHC260_A_0
*1614 FE_PHC259_A_124
*1615 FE_PHC258_A_126
*1616 FE_PHC257_B_19
*1617 FE_PHC256_A_123
*1618 FE_PHC255_Ci
*1619 FE_PHC254_A_1
*1620 FE_PHC253_A_11
*1621 FE_PHC252_A_53
*1622 FE_PHC251_A_108
*1623 FE_PHC250_A_120
*1624 FE_PHC249_A_121
*1625 FE_PHC248_A_122
*1626 FE_PHC247_B_18
*1627 FE_PHC246_B_22
*1628 FE_PHC245_B_25
*1629 FE_PHC244_B_83
*1630 FE_PHC243_B_84
*1631 FE_PHC242_B_85
*1632 FE_PHC241_B_115
*1633 FE_PHC240_A_2
*1634 FE_PHC239_A_3
*1635 FE_PHC238_A_4
*1636 FE_PHC237_A_10
*1637 FE_PHC236_A_76
*1638 FE_PHC235_A_78
*1639 FE_PHC234_B_6
*1640 FE_PHC233_B_7
*1641 FE_PHC232_B_17
*1642 FE_PHC231_B_23
*1643 FE_PHC230_B_42
*1644 FE_PHC229_A_9
*1645 FE_PHC228_A_54
*1646 FE_PHC227_A_58
*1647 FE_PHC226_A_77
*1648 FE_PHC225_A_119
*1649 FE_PHC224_B_20
*1650 FE_PHC223_B_26
*1651 FE_PHC222_B_41
*1652 FE_PHC221_B_88
*1653 FE_PHC220_B_102
*1654 FE_PHC219_B_114
*1655 FE_PHC218_A_5
*1656 FE_PHC217_A_48
*1657 FE_PHC216_A_56
*1658 FE_PHC215_A_65
*1659 FE_PHC214_A_75
*1660 FE_PHC213_A_107
*1661 FE_PHC212_A_110
*1662 FE_PHC211_A_118
*1663 FE_PHC210_B_44
*1664 FE_PHC209_B_45
*1665 FE_PHC208_B_81
*1666 FE_PHC207_B_89
*1667 FE_PHC206_B_5
*1668 FE_PHC205_B_15
*1669 FE_PHC204_B_16
*1670 FE_PHC203_B_21
*1671 FE_PHC202_B_27
*1672 FE_PHC201_B_36
*1673 FE_PHC200_B_40
*1674 FE_PHC199_B_86
*1675 FE_PHC198_B_87
*1676 FE_PHC197_B_103
*1677 FE_PHC196_B_104
*1678 FE_PHC195_B_113
*1679 FE_PHC194_B_117
*1680 FE_PHC193_A_6
*1681 FE_PHC192_A_8
*1682 FE_PHC191_A_12
*1683 FE_PHC190_A_13
*1684 FE_PHC189_A_14
*1685 FE_PHC188_A_52
*1686 FE_PHC187_A_59
*1687 FE_PHC186_A_66
*1688 FE_PHC185_A_70
*1689 FE_PHC184_A_71